*Heading
** Job name: naca0012TRI_medium_mesh Model name: Model-1
** Generated by: Abaqus/CAE 2021
*Preprint, echo=NO, model=NO, history=NO, contact=NO
**
** PARTS
**
*Part, name=naca0012
*End Part
**  
**
** ASSEMBLY
**
*Assembly, name=Assembly
**  
*Instance, name=naca0012-1, part=naca0012
*Node
      1,  0.143587261, 0.000981569057
      2,  0.136624053, 0.00190873304
      3,  0.129654303, 0.00278540491
      4,  0.115697823, 0.00439744303
      5, 0.0737125278, 0.00805546064
      6, 0.0526593104, 0.00895299762
      7, 0.0386111587, 0.00896612927
      8, 0.0176045019, 0.00744483294
      9, 0.0106953848, 0.00618818216
     10, 0.0040148613, 0.00405389536
     11, 0.000913252821, 0.00201854692
     12,  0.150542721,           0.
     13,           0.,           0.
     14, 0.000913870579, -0.0020192049
     15, 0.00401568227, -0.00405427208
     16,  0.010696264, -0.00618838565
     17,  0.017605396, -0.00744496007
     18, 0.0386120602, -0.00896614883
     19, 0.0526602119, -0.008952979
     20, 0.0737134293, -0.00805540476
** ... 49 like lines cut
*Element, type=CPS3
 1, 23,  1,  2
 2, 22,  2,  3
 3, 21, 45, 24
 4, 50, 43, 44
 5, 61, 60, 51
 6, 52, 18, 37
 7, 68, 53, 63
 8, 49,  9, 48
 9, 48, 10, 47
10, 47, 11, 13
11, 47, 13, 14
12, 47, 14, 15
13, 48, 47, 15
14, 49, 16, 17
15, 68, 64, 53
16, 62, 55, 32
17, 56, 30, 51
18, 25, 21,  4
19, 45,  3, 24
20, 22, 46,  2
** ... 70 like lines cut
*Nset, nset=Set-1, generate
  1,  69,   1
*Elset, elset=Set-1, generate
  1,  90,   1
** Section: Section-1
*Solid Section, elset=Set-1, material=Material-1
,
*End Instance
**  
*End Assembly
** 
** MATERIALS
** 
*Material, name=Material-1
*Elastic
200000., 0.45
** ----------------------------------------------------------------
** 
** STEP: Step-1
** 
*Step, name=Step-1, nlgeom=NO
*Static
1., 1., 1e-05, 1.
** 
** OUTPUT REQUESTS
** 
*Restart, write, frequency=0
** 
** FIELD OUTPUT: F-Output-1
** 
*Output, field, variable=PRESELECT
** 
** HISTORY OUTPUT: H-Output-1
** 
*Output, history, variable=PRESELECT
*End Step
