*Heading
** Job name: shark620 Model name: Model-1
** Generated by: Abaqus/CAE 2021
*Preprint, echo=NO, model=NO, history=NO, contact=NO
**
** PARTS
**
*Part, name=shark
*End Part
**  
**
** ASSEMBLY
**
*Assembly, name=Assembly
**  
*Instance, name=shark-1, part=shark
*Node
      1, -0.484504998, -0.0538330004,  0.145741001
      2, -0.484618992, -0.0537610017,  0.184354007
      3,  -0.62370199, -0.0270550009,  0.159270003
      4, -0.623588026, -0.0271269996,  0.145741001
      5,  -0.97021836, 0.0262871236, 0.0902770013
      6, -0.903950572,  0.016386088, 0.0903756171
      7, -0.901027501, 0.0159328077, 0.0908809528
      8, -0.904491007, 0.0146880001, 0.0902770013
      9, -0.993597984, 0.0304129999, 0.0902770013
     10,  -0.99348402, 0.0303409994, 0.0706970021
     11, -0.602020025,  0.123398997,  0.143021002
     12, -0.874743998,  0.108152002, 0.0957050025
     13, -0.904491007, 0.0146880001, -0.0902760029
     14,  -0.90102756, 0.0159327909, -0.0908799469
     15, -0.903950572, 0.0163860656, -0.0903746039
     16, -0.970217407, 0.0262869541, -0.0902752578
     17, -0.623588026, -0.0271269996, -0.145740002
     18,  -0.99348402, 0.0303409994, -0.0706949979
     19, -0.993597984, 0.0304129999, -0.0902749971
     20, -0.602020025,  0.123398997, -0.143020004
** ... 293 like lines cut
*Element, type=S4R
1,   1,   2, 289, 290
2, 290, 289,   3,   4
22, 295, 291, 297, 296
23, 296, 297,   3,  11
38, 304, 298, 302, 303
39,  21, 304, 303,  20
46, 313, 305,  17,  21
47,  23, 305, 313,  24
49,   1, 306, 307,  26
62,  23,  26, 307, 309
90,  17, 299, 304,  21
161,   4,   3, 297, 294
*Element, type=S3
3,   7, 291,   8
4,   8,   5,   6
5,   8,   6,   7
 6,   6,   5,  10
 7,   5,   9,  10
 8, 292,   7,  10
 9,   4, 294, 293
10, 291, 294,   8
11, 292, 294, 291
12,  10,   7,   6
13, 292, 291,   7
14, 292, 293, 294
15, 6, 5, 8
16,  12,   7, 295
17,   7,  12,   6
18, 295, 296,  12
19, 296,  11,  12
20, 291,   8, 297
21, 295,   7, 291
24,  16,  13,  15
** ... 588 like lines cut
*End Instance
**  
*End Assembly
** 
** MATERIALS
** 
*Material, name=Material-1
*Elastic
210000., 0.3
** ----------------------------------------------------------------
** 
** STEP: Step-1
** 
*Step, name=Step-1, nlgeom=NO
*Static
1., 1., 1e-05, 1.
** 
** OUTPUT REQUESTS
** 
*Restart, write, frequency=0
** 
** FIELD OUTPUT: F-Output-1
** 
*Output, field, variable=PRESELECT
** 
** HISTORY OUTPUT: H-Output-1
** 
*Output, history, variable=PRESELECT
*End Step
