*Heading
** Job name: testPartTET4D4 Model name: Model-1
** Generated by: Abaqus/CAE 2021
*Preprint, echo=NO, model=NO, history=NO, contact=NO
**
** PARTS
**
*Part, name=Part-1
*End Part
**  
**
** ASSEMBLY
**
*Assembly, name=Assembly
**  
*Instance, name=Part-1-1, part=Part-1
*Node
      1,           0.,         -20.,           0.
      2,           0.,         -20.,          20.
      3,   8.02405453,   -11.935585,           0.
      4,          10.,           0.,           0.
      5,   8.02405453,    11.935585,           0.
      6,           0.,          20.,           0.
      7,  -8.02405453,    11.935585,           0.
      8,         -10.,           0.,           0.
      9,  -8.02405453,   -11.935585,           0.
     10,  -8.02405453,   -11.935585,          20.
     11,         -10.,           0.,          20.
     12,  -8.02405453,    11.935585,          20.
     13,           0.,          20.,          20.
     14,   8.02405453,    11.935585,          20.
     15,          10.,           0.,          20.
     16,   8.02405453,   -11.935585,          20.
     17, -0.00187252089,   3.97901416,           0.
     18,  -8.02405453,   -11.935585,          10.
     19,         -10.,           0.,          10.
     20,  -8.02405453,    11.935585,          10.
** ... 8 like lines cut
*Element, type=C3D4
 1, 27,  8, 17,  9
 2, 27,  9, 19,  8
 3, 27, 11, 26, 19
 4, 27, 26, 11, 10
 5, 27, 18,  9,  1
 6, 27, 18,  1, 25
 7, 27, 23, 24,  4
 8, 27,  3,  4, 24
 9,  5, 28, 23, 22
10, 28,  8, 20,  7
11, 28, 12, 14, 13
12, 28, 13, 14, 21
13, 27, 24, 16,  2
14, 28, 20,  8, 19
15, 26, 19, 12, 28
16, 11, 26, 19, 12
17, 28, 21, 20, 13
18, 17, 28,  8, 27
19, 28,  6,  5,  7
20, 28,  8, 27, 19
** ... 37 like lines cut
*Nset, nset=Set-1, generate
  1,  28,   1
*Elset, elset=Set-1, generate
  1,  57,   1
** Section: Section-1
*Solid Section, elset=Set-1, material=Material-1
,
*End Instance
**  
*End Assembly
** 
** MATERIALS
** 
*Material, name=Material-1
*Elastic
250000., 0.45
** ----------------------------------------------------------------
** 
** STEP: Step-1
** 
*Step, name=Step-1, nlgeom=NO
*Static
1., 1., 1e-05, 1.
** 
** OUTPUT REQUESTS
** 
*Restart, write, frequency=0
** 
** FIELD OUTPUT: F-Output-1
** 
*Output, field, variable=PRESELECT
** 
** HISTORY OUTPUT: H-Output-1
** 
*Output, history, variable=PRESELECT
*End Step
** ----------------------------------------------------------------
** 
** STEP: Step-2
** 
*Step, name=Step-2, nlgeom=NO
*Static
1., 1., 1e-05, 1.
** 
** OUTPUT REQUESTS
** 
*Restart, write, frequency=0
** 
** FIELD OUTPUT: F-Output-1
** 
*Output, field, variable=PRESELECT
** 
** HISTORY OUTPUT: H-Output-1
** 
*Output, history, variable=PRESELECT
*End Step
** ----------------------------------------------------------------
** 
** STEP: Step-3
** 
*Step, name=Step-3, nlgeom=NO
*Static
1., 1., 1e-05, 1.
** 
** OUTPUT REQUESTS
** 
*Restart, write, frequency=0
** 
** FIELD OUTPUT: F-Output-1
** 
*Output, field, variable=PRESELECT
** 
** HISTORY OUTPUT: H-Output-1
** 
*Output, history, variable=PRESELECT
*End Step
