*Heading
** Job name: Job-2 Model name: Model-1
** Generated by: Abaqus/CAE 2021
*Preprint, echo=NO, model=NO, history=NO, contact=NO
**
** PARTS
**
*Part, name=Part-1
*End Part
**  
**
** ASSEMBLY
**
*Assembly, name=Assembly
**  
*Instance, name=Part-1-1, part=Part-1
*Node
      1,  0.600000024, 0.0500000007
      2,  0.582857132, 0.0500000007
      3,    0.5657143, 0.0500000007
      4,  0.548571408, 0.0500000007
      5,  0.531428576, 0.0500000007
      6,  0.514285743, 0.0500000007
      7,  0.497142851, 0.0500000007
      8,  0.479999989, 0.0500000007
      9,  0.462857157, 0.0500000007
     10,  0.445714295, 0.0500000007
     11,  0.428571433, 0.0500000007
     12,  0.411428571, 0.0500000007
     13,  0.394285709, 0.0500000007
     14,  0.377142847, 0.0500000007
     15,  0.360000014, 0.0500000007
     16,  0.342857152, 0.0500000007
     17,   0.32571429, 0.0500000007
     18,  0.308571428, 0.0500000007
     19,  0.291428566, 0.0500000007
     20,  0.274285704, 0.0500000007
** ... 232 like lines cut
*Element, type=CPS3
  1,   1,   2,  38
  2,  38,  37,   1
  3,   2,   3,  39
  4,  39,  38,   2
  5,   3,   4,  40
  6,  40,  39,   3
  7,   4,   5,  41
  8,  41,  40,   4
  9,   5,   6,  42
 10,  42,  41,   5
 11,   6,   7,  43
 12,  43,  42,   6
 13,   7,   8,  44
 14,  44,  43,   7
 15,   8,   9,  45
 16,  45,  44,   8
 17,   9,  10,  46
 18,  46,  45,   9
 19,  10,  11,  47
 20,  47,  46,  10
** ... 400 like lines cut
*Nset, nset=Set-1, generate
   1,  252,    1
*Elset, elset=Set-1, generate
   1,  420,    1
** Section: Section-1
*Solid Section, elset=Set-1, material=Material-1
,
*End Instance
**  
*End Assembly
** 
** MATERIALS
** 
*Material, name=Material-1
*Elastic
210000., 0.3
** ----------------------------------------------------------------
** 
** STEP: Step-1
** 
*Step, name=Step-1, nlgeom=NO
*Static
1., 1., 1e-05, 1.
** 
** OUTPUT REQUESTS
** 
*Restart, write, frequency=0
** 
** FIELD OUTPUT: F-Output-1
** 
*Output, field, variable=PRESELECT
** 
** HISTORY OUTPUT: H-Output-1
** 
*Output, history, variable=PRESELECT
*End Step
