*Heading
** Job name: fishNominalTRI3 Model name: Model-1
** Generated by: Abaqus/CAE 2021
*Preprint, echo=NO, model=NO, history=NO, contact=NO
**
** PARTS
**
*Part, name=Part-1
*End Part
**  
**
** ASSEMBLY
**
*Assembly, name=Assembly
**  
*Instance, name=Part-1-1, part=Part-1
*Node
      1,  0.600000024, 0.0500000007
      2,  0.540000021, 0.0500000007
      3,  0.479999989, 0.0500000007
      4,  0.419999987, 0.0500000007
      5,  0.360000014, 0.0500000007
      6,  0.300000012, 0.0500000007
      7,  0.239999995, 0.0500000007
      8,  0.180000007, 0.0500000007
      9,  0.119999997, 0.0500000007
     10, 0.0599999987, 0.0500000007
     11,           0., 0.0500000007
     12,  0.600000024,           0.
     13,  0.540000021,           0.
     14,  0.479999989,           0.
     15,  0.419999987,           0.
     16,  0.360000014,           0.
     17,  0.300000012,           0.
     18,  0.239999995,           0.
     19,  0.180000007,           0.
     20,  0.119999997,           0.
** ... 13 like lines cut
*Element, type=CPS3
 1,  1,  2, 13
 2, 13, 12,  1
 3,  2,  3, 14
 4, 14, 13,  2
 5,  3,  4, 15
 6, 15, 14,  3
 7,  4,  5, 16
 8, 16, 15,  4
 9,  5,  6, 17
10, 17, 16,  5
11,  6,  7, 18
12, 18, 17,  6
13,  7,  8, 19
14, 19, 18,  7
15,  8,  9, 20
16, 20, 19,  8
17,  9, 10, 21
18, 21, 20,  9
19, 10, 11, 22
20, 22, 21, 10
** ... 20 like lines cut
*Nset, nset=Set-1, generate
  1,  33,   1
*Elset, elset=Set-1, generate
  1,  40,   1
** Section: Section-1
*Solid Section, elset=Set-1, material=Material-1
,
*End Instance
**  
*End Assembly
** 
** MATERIALS
** 
*Material, name=Material-1
*Elastic
210000., 0.3
** ----------------------------------------------------------------
** 
** STEP: Step-1
** 
*Step, name=Step-1, nlgeom=NO
*Static
1., 1., 1e-05, 1.
** 
** OUTPUT REQUESTS
** 
*Restart, write, frequency=0
** 
** FIELD OUTPUT: F-Output-1
** 
*Output, field, variable=PRESELECT
** 
** HISTORY OUTPUT: H-Output-1
** 
*Output, history, variable=PRESELECT
*End Step
