*Heading
** Job name: naca0012_TET4_350 Model name: Model-1
** Generated by: Abaqus/CAE 2021
*Preprint, echo=NO, model=NO, history=NO, contact=NO
**
** PARTS
**
*Part, name=naca0012_3D_tight
*End Part
**  
**
** ASSEMBLY
**
*Assembly, name=Assembly
**  
*Instance, name=naca0012_3D_tight-1, part=naca0012_3D_tight
*Node
      1,           0.,           0., 0.0199999996
      2,  0.150542721,           0., 0.0199999996
      3,  0.150542721,           0.,           0.
      4,           0.,           0.,           0.
      5, 0.0011450781, -0.00225050026, 0.0199999996
      6, 0.00468467921, -0.0043469402, 0.0199999996
      7, 0.0126266722, -0.00660409965, 0.0199999996
      8, 0.0224140342, -0.00802963227, 0.0199999996
      9,  0.032279931, -0.00875103287, 0.0199999996
     10, 0.0421699807, -0.00902032014, 0.0199999996
     11,  0.052063901, -0.00896481145, 0.0199999996
     12, 0.0619529709, -0.00866284501, 0.0199999996
     13,  0.071834214, -0.00816805754, 0.0199999996
     14, 0.0817072615, -0.0075183427, 0.0199999996
     15, 0.0915705562, -0.00674073445, 0.0199999996
     16,  0.101424947, -0.00585426809, 0.0199999996
     17,  0.111269906, -0.00487024989, 0.0199999996
     18,  0.121105365, -0.00379510666, 0.0199999996
     19,  0.130930394, -0.00262858672, 0.0199999996
     20,  0.140743598, -0.00136664975, 0.0199999996
** ... 118 like lines cut
*Element, type=C3D4
  1, 123,   7, 124,  73
  2, 125,  95,  94,  64
  3, 107, 126, 108, 105
  4, 123, 108, 127, 109
  5,  35,  72,  71, 126
  6, 126, 108, 105, 123
  7,  18,  94,  93, 120
  8, 123, 109,   7,   6
  9, 126,  72,  71,   6
 10, 128, 129, 118,  16
 11, 128, 129,  25,  95
 12, 128, 125,  94, 119
 13, 122,  37, 121,  67
 14, 128, 119,  94,  17
 15, 128,  95,  25,  24
 16, 130, 131, 114,  78
 17, 130,  60, 131,  99
 18, 130,  90, 132, 115
 19, 130, 131,  85, 114
 20, 133, 132,  84, 116
** ... 330 like lines cut
*Nset, nset=Set-1, generate
   1,  138,    1
*Elset, elset=Set-1, generate
   1,  350,    1
** Section: Section-1
*Solid Section, elset=Set-1, material=Material-1
,
*End Instance
**  
*End Assembly
** 
** MATERIALS
** 
*Material, name=Material-1
*Elastic
210000., 0.3
** ----------------------------------------------------------------
** 
** STEP: Step-1
** 
*Step, name=Step-1, nlgeom=NO
*Static
1., 1., 1e-05, 1.
** 
** OUTPUT REQUESTS
** 
*Restart, write, frequency=0
** 
** FIELD OUTPUT: F-Output-1
** 
*Output, field, variable=PRESELECT
** 
** HISTORY OUTPUT: H-Output-1
** 
*Output, history, variable=PRESELECT
*End Step
