*Heading
** Job name: testPartFineTET4D4 Model name: Model-1
** Generated by: Abaqus/CAE 2021
*Preprint, echo=NO, model=NO, history=NO, contact=NO
**
** PARTS
**
*Part, name=Part-1
*End Part
**  
**
** ASSEMBLY
**
*Assembly, name=Assembly
**  
*Instance, name=Part-1-1, part=Part-1
*Node
      1,           0.,         -20.,           0.
      2,           0.,         -20.,          20.
      3,   3.42160821,  -18.7928276,           0.
      4,   6.15615654,   -15.760931,           0.
      5,   7.96822453,  -12.0842705,           0.
      6,   9.13203621,  -8.15006924,           0.
      7,   9.78773975,  -4.09885216,           0.
      8,          10.,           0.,           0.
      9,   9.78773975,   4.09885216,           0.
     10,   9.13203621,   8.15006924,           0.
     11,   7.96822453,   12.0842705,           0.
     12,   6.15615654,    15.760931,           0.
     13,   3.42160821,   18.7928276,           0.
     14,           0.,          20.,           0.
     15,  -3.42160821,   18.7928276,           0.
     16,  -6.15615654,    15.760931,           0.
     17,  -7.96822453,   12.0842705,           0.
     18,  -9.13203621,   8.15006924,           0.
     19,  -9.78773975,   4.09885216,           0.
     20,         -10.,           0.,           0.
** ... 327 like lines cut
*Element, type=C3D4
   1, 209, 210, 211, 212
   2, 213, 214, 210, 215
   3, 213, 212, 216, 217
   4, 213, 218, 212, 217
   5, 213, 214, 217, 216
   6, 219, 218, 220, 221
   7, 222, 221, 223, 219
   8, 103, 224, 104, 177
   9, 219, 225, 226, 223
  10, 219, 226, 225, 227
  11, 228, 229, 230, 131
  12, 212, 231, 232, 233
  13, 234, 232, 233, 212
  14, 228, 235, 232, 233
  15, 228, 236, 233, 230
  16,  26, 104, 177,   2
  17, 237, 238, 239, 240
  18, 237, 239, 241, 240
  19, 216, 242, 217, 237
  20, 237, 239, 242, 241
** ... 1357 like lines cut
*Nset, nset=Set-1, generate
   1,  347,    1
*Elset, elset=Set-1, generate
    1,  1377,     1
** Section: Section-1
*Solid Section, elset=Set-1, material=Material-1
,
*End Instance
**  
*End Assembly
** 
** MATERIALS
** 
*Material, name=Material-1
*Elastic
250000., 0.45
** ----------------------------------------------------------------
** 
** STEP: Step-1
** 
*Step, name=Step-1, nlgeom=NO
*Static
1., 1., 1e-05, 1.
** 
** OUTPUT REQUESTS
** 
*Restart, write, frequency=0
** 
** FIELD OUTPUT: F-Output-1
** 
*Output, field, variable=PRESELECT
** 
** HISTORY OUTPUT: H-Output-1
** 
*Output, history, variable=PRESELECT
*End Step
** ----------------------------------------------------------------
** 
** STEP: Step-2
** 
*Step, name=Step-2, nlgeom=NO
*Static
1., 1., 1e-05, 1.
** 
** OUTPUT REQUESTS
** 
*Restart, write, frequency=0
** 
** FIELD OUTPUT: F-Output-1
** 
*Output, field, variable=PRESELECT
** 
** HISTORY OUTPUT: H-Output-1
** 
*Output, history, variable=PRESELECT
*End Step
** ----------------------------------------------------------------
** 
** STEP: Step-3
** 
*Step, name=Step-3, nlgeom=NO
*Static
1., 1., 1e-05, 1.
** 
** OUTPUT REQUESTS
** 
*Restart, write, frequency=0
** 
** FIELD OUTPUT: F-Output-1
** 
*Output, field, variable=PRESELECT
** 
** HISTORY OUTPUT: H-Output-1
** 
*Output, history, variable=PRESELECT
*End Step
** ----------------------------------------------------------------
** 
** STEP: Step-4
** 
*Step, name=Step-4, nlgeom=NO
*Static
1., 1., 1e-05, 1.
** 
** OUTPUT REQUESTS
** 
*Restart, write, frequency=0
** 
** FIELD OUTPUT: F-Output-1
** 
*Output, field, variable=PRESELECT
** 
** HISTORY OUTPUT: H-Output-1
** 
*Output, history, variable=PRESELECT
*End Step
