/batch
/config,noeldb,1     ! force off writing results to database
*get,_wallstrt,active,,time,wall
! ANSYS input file written by Workbench version 15.0.7  Release
! File used for geometry attach: C:\Users\mosta\OneDrive\Documents\ANSYS\FredivFull_4nodes\FREQDIVFULL4nodes_files\dp0\SYS-5\DM\SYS-5.agdb
/title,FREQDIVFULL4nodes--Static Structural 2 (A5)
*DIM,_wb_ProjectScratch_dir,string,248
_wb_ProjectScratch_dir(1) = 'C:\Users\mosta\OneDrive\Documents\ANSYS\FredivFull_4nodes\FREQDIVFULL4nodes_files\dp0\SYS-5\MECH\'
*DIM,_wb_SolverFiles_dir,string,248
_wb_SolverFiles_dir(1) = 'C:\Users\mosta\OneDrive\Documents\ANSYS\FredivFull_4nodes\FREQDIVFULL4nodes_files\dp0\SYS-5\MECH\'
*DIM,_wb_userfiles_dir,string,248
_wb_userfiles_dir(1) = 'C:\Users\mosta\OneDrive\Documents\ANSYS\FredivFull_4nodes\FREQDIVFULL4nodes_files\user_files\'
/com,--- Data in consistent uMKS units.
/units,uMKS
/nopr
/wb,file,start              !  signify a WB generated input file
/prep7
! Turn off shape checking because checks already performed inside WB mesher.
! See help system for more information.
SHPP,OFF,,NOWARN
ncnv,1,1e9             ! uMKS system, Increase DOF limit to 1e9
/nolist
etcon,set             ! allow ANSYS to choose best KEYOP's for 180x elements
/com,*********** Nodes for the whole assembly ***********
nblock,3
(1i9,3e20.9e3)
        1    1.770000000E+001    1.830000000E+002    0.000000000E+000
        2    0.000000000E+000    1.830000000E+002    0.000000000E+000
        3    9.250000000E-001    1.830000000E+002    0.000000000E+000
        4    1.677500000E+001    1.830000000E+002    0.000000000E+000
        5    0.000000000E+000    0.000000000E+000    0.000000000E+000
        6    9.250000000E-001    0.000000000E+000    0.000000000E+000
        7    9.250000000E-001    9.150000000E+001    0.000000000E+000
        8    9.250000000E-001    9.242424242E-001    0.000000000E+000
        9    9.250000000E-001    1.848484848E+000    0.000000000E+000
       10    9.250000000E-001    2.772727273E+000    0.000000000E+000
       11    9.250000000E-001    3.696969697E+000    0.000000000E+000
       12    9.250000000E-001    4.621212121E+000    0.000000000E+000
       13    9.250000000E-001    5.545454545E+000    0.000000000E+000
       14    9.250000000E-001    6.469696970E+000    0.000000000E+000
       15    9.250000000E-001    7.393939394E+000    0.000000000E+000
       16    9.250000000E-001    8.318181818E+000    0.000000000E+000
       17    9.250000000E-001    9.242424242E+000    0.000000000E+000
       18    9.250000000E-001    1.016666667E+001    0.000000000E+000
       19    9.250000000E-001    1.109090909E+001    0.000000000E+000
       20    9.250000000E-001    1.201515152E+001    0.000000000E+000
! ... 2921 like lines cut
/wb,elem,start            !  set before creation of elements
/com,*********** Elements for Body 1 "Surface Body" ***********
et,1,181
keyo,1,3,2
eblock,19,solid,,27
(19i9)
        1        1        1        1        0        0        0        0        4        0        1        3     2785     2888        2
        1        1        1        1        0        0        0        0        4        0        2     2785     2786     2887     2888
        1        1        1        1        0        0        0        0        4        0        3     2786     2787     2886     2887
        1        1        1        1        0        0        0        0        4        0        4     2787     2788     2885     2886
        1        1        1        1        0        0        0        0        4        0        5     2788     2789     2884     2885
        1        1        1        1        0        0        0        0        4        0        6     2789     2790     2883     2884
        1        1        1        1        0        0        0        0        4        0        7     2790     2791     2882     2883
        1        1        1        1        0        0        0        0        4        0        8     2791     2792     2881     2882
        1        1        1        1        0        0        0        0        4        0        9     2792     2793     2880     2881
        1        1        1        1        0        0        0        0        4        0       10     2793     2794     2879     2880
        1        1        1        1        0        0        0        0        4        0       11     2794     2795     2878     2879
        1        1        1        1        0        0        0        0        4        0       12     2795     2796     2877     2878
        1        1        1        1        0        0        0        0        4        0       13     2796     2797     2876     2877
        1        1        1        1        0        0        0        0        4        0       14     2797     2798     2875     2876
        1        1        1        1        0        0        0        0        4        0       15     2798     2799     2874     2875
        1        1        1        1        0        0        0        0        4        0       16     2799     2800     2873     2874
        1        1        1        1        0        0        0        0        4        0       17     2800     2801     2872     2873
        1        1        1        1        0        0        0        0        4        0       18     2801     2802     2871     2872
        1        1        1        1        0        0        0        0        4        0       19     2802     2803     2870     2871
        1        1        1        1        0        0        0        0        4        0       20     2803     2804     2869     2870
! ... 8 like lines cut
!Material Id = {71095A63-8282-48D6-835D-7D500F96A80E}
/com,*********** Elements for Body 2 "Surface Body" ***********
et,2,181
keyo,2,3,2
eblock,19,solid,,99
(19i9)
        2        2        2        2        0        0        0        0        4        0       28       74      138      139       73
        2        2        2        2        0        0        0        0        4        0       29       74       75      137      138
        2        2        2        2        0        0        0        0        4        0       30       73      139      140       72
        2        2        2        2        0        0        0        0        4        0       31      137       75       76      136
        2        2        2        2        0        0        0        0        4        0       32       72      140      141       71
        2        2        2        2        0        0        0        0        4        0       33       77      135      136       76
        2        2        2        2        0        0        0        0        4        0       34       71      141      142       70
        2        2        2        2        0        0        0        0        4        0       35      135       77       78      134
        2        2        2        2        0        0        0        0        4        0       36       70      142      143       69
        2        2        2        2        0        0        0        0        4        0       37      134       78       79      133
        2        2        2        2        0        0        0        0        4        0       38       69      143      144       68
        2        2        2        2        0        0        0        0        4        0       39      133       79       80      132
        2        2        2        2        0        0        0        0        4        0       40       68      144      145       67
        2        2        2        2        0        0        0        0        4        0       41      132       80       81      131
        2        2        2        2        0        0        0        0        4        0       42       67      145      146       66
        2        2        2        2        0        0        0        0        4        0       43      131       81       82      130
        2        2        2        2        0        0        0        0        4        0       44       66      146      147       65
        2        2        2        2        0        0        0        0        4        0       45      130       82       83      129
        2        2        2        2        0        0        0        0        4        0       46       65      147      148       64
        2        2        2        2        0        0        0        0        4        0       47      129       83       84      128
! ... 80 like lines cut
!Material Id = {DEDD9042-731F-4FCC-9CCB-B6D8D6935C3C}
/com,*********** Elements for Body 3 "Surface Body" ***********
et,3,181
keyo,3,3,2
eblock,19,solid,,99
(19i9)
        3        3        3        3        0        0        0        0        4        0      127      273      332      333      272
        3        3        3        3        0        0        0        0        4        0      128      273      274      331      332
        3        3        3        3        0        0        0        0        4        0      129      272      333      334      271
        3        3        3        3        0        0        0        0        4        0      130      331      274      275      330
        3        3        3        3        0        0        0        0        4        0      131      271      334      335      270
        3        3        3        3        0        0        0        0        4        0      132      330      275      276      329
        3        3        3        3        0        0        0        0        4        0      133      270      335      336      269
        3        3        3        3        0        0        0        0        4        0      134      329      276      277      328
        3        3        3        3        0        0        0        0        4        0      135      269      336      337      268
        3        3        3        3        0        0        0        0        4        0      136      328      277      278      327
        3        3        3        3        0        0        0        0        4        0      137      268      337      338      267
        3        3        3        3        0        0        0        0        4        0      138      327      278      279      326
        3        3        3        3        0        0        0        0        4        0      139      267      338      339      266
        3        3        3        3        0        0        0        0        4        0      140      326      279      280      325
        3        3        3        3        0        0        0        0        4        0      141      266      339      340      265
        3        3        3        3        0        0        0        0        4        0      142      325      280      281      324
        3        3        3        3        0        0        0        0        4        0      143      265      340      341      264
        3        3        3        3        0        0        0        0        4        0      144      324      281      282      323
        3        3        3        3        0        0        0        0        4        0      145      264      341      342      263
        3        3        3        3        0        0        0        0        4        0      146      323      282      283      322
! ... 80 like lines cut
!Material Id = {B86F5CEC-A2F8-4D77-B96A-1F73C4755985}
/com,*********** Elements for Body 4 "Surface Body" ***********
et,4,181
keyo,4,3,2
eblock,19,solid,,99
(19i9)
        4        4        4        4        0        0        0        0        4        0      226      471      273      272      470
        4        4        4        4        0        0        0        0        4        0      227      471      472      274      273
        4        4        4        4        0        0        0        0        4        0      228      470      272      271      469
        4        4        4        4        0        0        0        0        4        0      229      274      472      473      275
        4        4        4        4        0        0        0        0        4        0      230      469      271      270      468
        4        4        4        4        0        0        0        0        4        0      231      275      473      474      276
        4        4        4        4        0        0        0        0        4        0      232      468      270      269      467
        4        4        4        4        0        0        0        0        4        0      233      276      474      475      277
        4        4        4        4        0        0        0        0        4        0      234      467      269      268      466
        4        4        4        4        0        0        0        0        4        0      235      277      475      476      278
        4        4        4        4        0        0        0        0        4        0      236      466      268      267      465
        4        4        4        4        0        0        0        0        4        0      237      278      476      477      279
        4        4        4        4        0        0        0        0        4        0      238      465      267      266      464
        4        4        4        4        0        0        0        0        4        0      239      279      477      478      280
        4        4        4        4        0        0        0        0        4        0      240      464      266      265      463
        4        4        4        4        0        0        0        0        4        0      241      280      478      479      281
        4        4        4        4        0        0        0        0        4        0      242      463      265      264      462
        4        4        4        4        0        0        0        0        4        0      243      281      479      480      282
        4        4        4        4        0        0        0        0        4        0      244      462      264      263      461
        4        4        4        4        0        0        0        0        4        0      245      282      480      481      283
! ... 80 like lines cut
!Material Id = {361A875B-0916-4966-B3A9-6C7A3AAFBA3E}
/com,*********** Elements for Body 5 "Surface Body" ***********
et,5,181
keyo,5,3,2
eblock,19,solid,,99
(19i9)
        5        5        5        5        0        0        0        0        4        0      325      105      599      401        7
        5        5        5        5        0        0        0        0        4        0      326      105      104      598      599
        5        5        5        5        0        0        0        0        4        0      327      598      104      103      597
        5        5        5        5        0        0        0        0        4        0      328      597      103      102      596
        5        5        5        5        0        0        0        0        4        0      329      102      101      595      596
        5        5        5        5        0        0        0        0        4        0      330      101      100      594      595
        5        5        5        5        0        0        0        0        4        0      331      100       99      593      594
        5        5        5        5        0        0        0        0        4        0      332       99       98      592      593
        5        5        5        5        0        0        0        0        4        0      333       98       97      591      592
        5        5        5        5        0        0        0        0        4        0      334       97       96      590      591
        5        5        5        5        0        0        0        0        4        0      335       96       95      589      590
        5        5        5        5        0        0        0        0        4        0      336       95       94      588      589
        5        5        5        5        0        0        0        0        4        0      337       94       93      587      588
        5        5        5        5        0        0        0        0        4        0      338       93       92      586      587
        5        5        5        5        0        0        0        0        4        0      339       92       91      585      586
        5        5        5        5        0        0        0        0        4        0      340       91       90      584      585
        5        5        5        5        0        0        0        0        4        0      341       90       89      583      584
        5        5        5        5        0        0        0        0        4        0      342       89       88      582      583
        5        5        5        5        0        0        0        0        4        0      343       88       87      581      582
        5        5        5        5        0        0        0        0        4        0      344       87       86      580      581
! ... 80 like lines cut
!Material Id = {387AFFC2-A522-4347-B5AB-6C634178746F}
/com,*********** Elements for Body 6 "Surface Body" ***********
et,6,181
keyo,6,3,2
eblock,19,solid,,144
(19i9)
        6        6        6        6        0        0        0        0        4        0      424      889      745      602      746
        6        6        6        6        0        0        0        0        4        0      425      889      888      744      745
        6        6        6        6        0        0        0        0        4        0      426      744      888      887      743
        6        6        6        6        0        0        0        0        4        0      427      886      742      743      887
        6        6        6        6        0        0        0        0        4        0      428      886      885      741      742
        6        6        6        6        0        0        0        0        4        0      429      885      884      740      741
        6        6        6        6        0        0        0        0        4        0      430      884      883      739      740
        6        6        6        6        0        0        0        0        4        0      431      883      882      738      739
        6        6        6        6        0        0        0        0        4        0      432      882      881      737      738
        6        6        6        6        0        0        0        0        4        0      433      881      880      736      737
        6        6        6        6        0        0        0        0        4        0      434      880      879      735      736
        6        6        6        6        0        0        0        0        4        0      435      879      878      734      735
        6        6        6        6        0        0        0        0        4        0      436      878      877      733      734
        6        6        6        6        0        0        0        0        4        0      437      877      876      732      733
        6        6        6        6        0        0        0        0        4        0      438      876      875      731      732
        6        6        6        6        0        0        0        0        4        0      439      875      874      730      731
        6        6        6        6        0        0        0        0        4        0      440      874      873      729      730
        6        6        6        6        0        0        0        0        4        0      441      873      872      728      729
        6        6        6        6        0        0        0        0        4        0      442      872      871      727      728
        6        6        6        6        0        0        0        0        4        0      443      871      870      726      727
! ... 125 like lines cut
!Material Id = {5340206C-C703-4552-BC97-21CFDB55D49B}
/com,*********** Elements for Body 7 "Surface Body" ***********
et,7,181
keyo,7,3,2
eblock,19,solid,,143
(19i9)
        7        7        7        7        0        0        0        0        4        0      568     1175     1032      890     1033
        7        7        7        7        0        0        0        0        4        0      569     1175     1174     1031     1032
        7        7        7        7        0        0        0        0        4        0      570     1031     1174     1173     1030
        7        7        7        7        0        0        0        0        4        0      571     1030     1173     1172     1029
        7        7        7        7        0        0        0        0        4        0      572     1029     1172     1171     1028
        7        7        7        7        0        0        0        0        4        0      573     1028     1171     1170     1027
        7        7        7        7        0        0        0        0        4        0      574     1027     1170     1169     1026
        7        7        7        7        0        0        0        0        4        0      575     1026     1169     1168     1025
        7        7        7        7        0        0        0        0        4        0      576     1025     1168     1167     1024
        7        7        7        7        0        0        0        0        4        0      577     1024     1167     1166     1023
        7        7        7        7        0        0        0        0        4        0      578     1023     1166     1165     1022
        7        7        7        7        0        0        0        0        4        0      579     1022     1165     1164     1021
        7        7        7        7        0        0        0        0        4        0      580     1021     1164     1163     1020
        7        7        7        7        0        0        0        0        4        0      581     1020     1163     1162     1019
        7        7        7        7        0        0        0        0        4        0      582     1019     1162     1161     1018
        7        7        7        7        0        0        0        0        4        0      583     1018     1161     1160     1017
        7        7        7        7        0        0        0        0        4        0      584     1017     1160     1159     1016
        7        7        7        7        0        0        0        0        4        0      585     1016     1159     1158     1015
        7        7        7        7        0        0        0        0        4        0      586     1015     1158     1157     1014
        7        7        7        7        0        0        0        0        4        0      587     1014     1157     1156     1013
! ... 124 like lines cut
!Material Id = {E47FF134-9EBA-4177-8F34-8754423F65D6}
/com,*********** Elements for Body 8 "Surface Body" ***********
et,8,181
keyo,8,3,2
eblock,19,solid,,143
(19i9)
        8        8        8        8        0        0        0        0        4        0      711     1024     1184     1183     1025
        8        8        8        8        0        0        0        0        4        0      712     1183     1182     1026     1025
        8        8        8        8        0        0        0        0        4        0      713     1023     1185     1184     1024
        8        8        8        8        0        0        0        0        4        0      714     1026     1182     1181     1027
        8        8        8        8        0        0        0        0        4        0      715     1022     1186     1185     1023
        8        8        8        8        0        0        0        0        4        0      716     1027     1181     1180     1028
        8        8        8        8        0        0        0        0        4        0      717     1021     1187     1186     1022
        8        8        8        8        0        0        0        0        4        0      718     1028     1180     1179     1029
        8        8        8        8        0        0        0        0        4        0      719     1020     1188     1187     1021
        8        8        8        8        0        0        0        0        4        0      720     1029     1179     1178     1030
        8        8        8        8        0        0        0        0        4        0      721     1019     1189     1188     1020
        8        8        8        8        0        0        0        0        4        0      722     1030     1178     1177     1031
        8        8        8        8        0        0        0        0        4        0      723     1018     1190     1189     1019
        8        8        8        8        0        0        0        0        4        0      724     1031     1177        1     1032
        8        8        8        8        0        0        0        0        4        0      725     1017     1191     1190     1018
        8        8        8        8        0        0        0        0        4        0      726     1032        1        4      890
        8        8        8        8        0        0        0        0        4        0      727     1016     1192     1191     1017
        8        8        8        8        0        0        0        0        4        0      728     1015     1193     1192     1016
        8        8        8        8        0        0        0        0        4        0      729     1015     1014     1194     1193
        8        8        8        8        0        0        0        0        4        0      730     1014     1013     1195     1194
! ... 124 like lines cut
!Material Id = {23F2F4EA-2204-4717-AAD1-AABEB3C1DBF9}
/com,*********** Elements for Body 9 "Surface Body" ***********
et,9,181
keyo,9,3,2
eblock,19,solid,,144
(19i9)
        9        9        9        9        0        0        0        0        4        0      854      704     1360     1359      705
        9        9        9        9        0        0        0        0        4        0      855      704      703     1361     1360
        9        9        9        9        0        0        0        0        4        0      856      705     1359     1358      706
        9        9        9        9        0        0        0        0        4        0      857     1361      703      702     1362
        9        9        9        9        0        0        0        0        4        0      858      706     1358     1357      707
        9        9        9        9        0        0        0        0        4        0      859     1362      702      701     1363
        9        9        9        9        0        0        0        0        4        0      860      707     1357     1356      708
        9        9        9        9        0        0        0        0        4        0      861     1363      701      700     1364
        9        9        9        9        0        0        0        0        4        0      862      708     1356     1355      709
        9        9        9        9        0        0        0        0        4        0      863     1364      700      699     1365
        9        9        9        9        0        0        0        0        4        0      864      709     1355     1354      710
        9        9        9        9        0        0        0        0        4        0      865     1365      699      698     1366
        9        9        9        9        0        0        0        0        4        0      866      710     1354     1353      711
        9        9        9        9        0        0        0        0        4        0      867     1366      698      697     1367
        9        9        9        9        0        0        0        0        4        0      868      711     1353     1352      712
        9        9        9        9        0        0        0        0        4        0      869     1367      697      696     1368
        9        9        9        9        0        0        0        0        4        0      870      712     1352     1351      713
        9        9        9        9        0        0        0        0        4        0      871     1368      696      695     1369
        9        9        9        9        0        0        0        0        4        0      872      713     1351     1350      714
        9        9        9        9        0        0        0        0        4        0      873     1369      695      694     1370
! ... 125 like lines cut
!Material Id = {790DCE91-840B-4D77-9F7D-AB9C2CF91DE8}
/com,*********** Elements for Body 10 "Surface Body" ***********
et,10,181
keyo,10,3,2
eblock,19,solid,,27
(19i9)
       10       10       10       10        0        0        0        0        4        0      998      402     2784     2785        3
       10       10       10       10        0        0        0        0        4        0      999     2784     2783     2786     2785
       10       10       10       10        0        0        0        0        4        0     1000     2783     2782     2787     2786
       10       10       10       10        0        0        0        0        4        0     1001     2782     2781     2788     2787
       10       10       10       10        0        0        0        0        4        0     1002     2781     2780     2789     2788
       10       10       10       10        0        0        0        0        4        0     1003     2780     2779     2790     2789
       10       10       10       10        0        0        0        0        4        0     1004     2779     2778     2791     2790
       10       10       10       10        0        0        0        0        4        0     1005     2778     2777     2792     2791
       10       10       10       10        0        0        0        0        4        0     1006     2777     2776     2793     2792
       10       10       10       10        0        0        0        0        4        0     1007     2776     2775     2794     2793
       10       10       10       10        0        0        0        0        4        0     1008     2775     2774     2795     2794
       10       10       10       10        0        0        0        0        4        0     1009     2774     2773     2796     2795
       10       10       10       10        0        0        0        0        4        0     1010     2773     2772     2797     2796
       10       10       10       10        0        0        0        0        4        0     1011     2772     2771     2798     2797
       10       10       10       10        0        0        0        0        4        0     1012     2771     2770     2799     2798
       10       10       10       10        0        0        0        0        4        0     1013     2770     2769     2800     2799
       10       10       10       10        0        0        0        0        4        0     1014     2769     2768     2801     2800
       10       10       10       10        0        0        0        0        4        0     1015     2768     2767     2802     2801
       10       10       10       10        0        0        0        0        4        0     1016     2767     2766     2803     2802
       10       10       10       10        0        0        0        0        4        0     1017     2766     2765     2804     2803
! ... 8 like lines cut
!Material Id = {FB58D3F4-7A4F-4477-882E-3995CA19400F}
/com,*********** Elements for Body 11 "UPP" ***********
et,11,181
keyo,11,3,2
eblock,19,solid,,27
(19i9)
       11       11       11       11        0        0        0        0        4        0     1025     1465     2733     2914     1464
       11       11       11       11        0        0        0        0        4        0     1026     2733     2734     2913     2914
       11       11       11       11        0        0        0        0        4        0     1027     2734     2735     2912     2913
       11       11       11       11        0        0        0        0        4        0     1028     2735     2736     2911     2912
       11       11       11       11        0        0        0        0        4        0     1029     2736     2737     2910     2911
       11       11       11       11        0        0        0        0        4        0     1030     2737     2738     2909     2910
       11       11       11       11        0        0        0        0        4        0     1031     2738     2739     2908     2909
       11       11       11       11        0        0        0        0        4        0     1032     2739     2740     2907     2908
       11       11       11       11        0        0        0        0        4        0     1033     2740     2741     2906     2907
       11       11       11       11        0        0        0        0        4        0     1034     2741     2742     2905     2906
       11       11       11       11        0        0        0        0        4        0     1035     2742     2743     2904     2905
       11       11       11       11        0        0        0        0        4        0     1036     2743     2744     2903     2904
       11       11       11       11        0        0        0        0        4        0     1037     2744     2745     2902     2903
       11       11       11       11        0        0        0        0        4        0     1038     2745     2746     2901     2902
       11       11       11       11        0        0        0        0        4        0     1039     2746     2747     2900     2901
       11       11       11       11        0        0        0        0        4        0     1040     2747     2748     2899     2900
       11       11       11       11        0        0        0        0        4        0     1041     2748     2749     2898     2899
       11       11       11       11        0        0        0        0        4        0     1042     2749     2750     2897     2898
       11       11       11       11        0        0        0        0        4        0     1043     2750     2751     2896     2897
       11       11       11       11        0        0        0        0        4        0     1044     2751     2752     2895     2896
! ... 8 like lines cut
!Material Id = {6C5B9FDC-FA5E-4656-B2EF-CF9E9DCADD40}
/com,*********** Elements for Body 12 "Surface Body" ***********
et,12,181
keyo,12,3,2
eblock,19,solid,,27
(19i9)
       12       12       12       12        0        0        0        0        4        0     1052     1469     2837     2836     1468
       12       12       12       12        0        0        0        0        4        0     1053     2837     2838     2835     2836
       12       12       12       12        0        0        0        0        4        0     1054     2838     2839     2834     2835
       12       12       12       12        0        0        0        0        4        0     1055     2839     2840     2833     2834
       12       12       12       12        0        0        0        0        4        0     1056     2840     2841     2832     2833
       12       12       12       12        0        0        0        0        4        0     1057     2841     2842     2831     2832
       12       12       12       12        0        0        0        0        4        0     1058     2842     2843     2830     2831
       12       12       12       12        0        0        0        0        4        0     1059     2843     2844     2829     2830
       12       12       12       12        0        0        0        0        4        0     1060     2844     2845     2828     2829
       12       12       12       12        0        0        0        0        4        0     1061     2845     2846     2827     2828
       12       12       12       12        0        0        0        0        4        0     1062     2846     2847     2826     2827
       12       12       12       12        0        0        0        0        4        0     1063     2847     2848     2825     2826
       12       12       12       12        0        0        0        0        4        0     1064     2848     2849     2824     2825
       12       12       12       12        0        0        0        0        4        0     1065     2849     2850     2823     2824
       12       12       12       12        0        0        0        0        4        0     1066     2850     2851     2822     2823
       12       12       12       12        0        0        0        0        4        0     1067     2851     2852     2821     2822
       12       12       12       12        0        0        0        0        4        0     1068     2852     2853     2820     2821
       12       12       12       12        0        0        0        0        4        0     1069     2853     2854     2819     2820
       12       12       12       12        0        0        0        0        4        0     1070     2854     2855     2818     2819
       12       12       12       12        0        0        0        0        4        0     1071     2855     2856     2817     2818
! ... 8 like lines cut
!Material Id = {1391C7F2-415A-4E90-A836-742855108554}
/com,*********** Elements for Body 13 "Surface Body" ***********
et,13,181
keyo,13,3,2
eblock,19,solid,,27
(19i9)
       13       13       13       13        0        0        0        0        4        0     1079     1468     2732     2733     1465
       13       13       13       13        0        0        0        0        4        0     1080     2732     2731     2734     2733
       13       13       13       13        0        0        0        0        4        0     1081     2731     2730     2735     2734
       13       13       13       13        0        0        0        0        4        0     1082     2730     2729     2736     2735
       13       13       13       13        0        0        0        0        4        0     1083     2729     2728     2737     2736
       13       13       13       13        0        0        0        0        4        0     1084     2728     2727     2738     2737
       13       13       13       13        0        0        0        0        4        0     1085     2727     2726     2739     2738
       13       13       13       13        0        0        0        0        4        0     1086     2726     2725     2740     2739
       13       13       13       13        0        0        0        0        4        0     1087     2725     2724     2741     2740
       13       13       13       13        0        0        0        0        4        0     1088     2724     2723     2742     2741
       13       13       13       13        0        0        0        0        4        0     1089     2723     2722     2743     2742
       13       13       13       13        0        0        0        0        4        0     1090     2722     2721     2744     2743
       13       13       13       13        0        0        0        0        4        0     1091     2721     2720     2745     2744
       13       13       13       13        0        0        0        0        4        0     1092     2720     2719     2746     2745
       13       13       13       13        0        0        0        0        4        0     1093     2719     2718     2747     2746
       13       13       13       13        0        0        0        0        4        0     1094     2718     2717     2748     2747
       13       13       13       13        0        0        0        0        4        0     1095     2717     2716     2749     2748
       13       13       13       13        0        0        0        0        4        0     1096     2716     2715     2750     2749
       13       13       13       13        0        0        0        0        4        0     1097     2715     2714     2751     2750
       13       13       13       13        0        0        0        0        4        0     1098     2714     2713     2752     2751
! ... 8 like lines cut
!Material Id = {00715B3E-5620-48CA-819D-2161830B9C2C}
/com,*********** Elements for Body 14 "Surface Body" ***********
et,14,181
keyo,14,3,2
eblock,19,solid,,27
(19i9)
       14       14       14       14        0        0        0        0        4        0     1106     1472     2940     2837     1469
       14       14       14       14        0        0        0        0        4        0     1107     2940     2939     2838     2837
       14       14       14       14        0        0        0        0        4        0     1108     2939     2938     2839     2838
       14       14       14       14        0        0        0        0        4        0     1109     2938     2937     2840     2839
       14       14       14       14        0        0        0        0        4        0     1110     2937     2936     2841     2840
       14       14       14       14        0        0        0        0        4        0     1111     2936     2935     2842     2841
       14       14       14       14        0        0        0        0        4        0     1112     2935     2934     2843     2842
       14       14       14       14        0        0        0        0        4        0     1113     2934     2933     2844     2843
       14       14       14       14        0        0        0        0        4        0     1114     2933     2932     2845     2844
       14       14       14       14        0        0        0        0        4        0     1115     2932     2931     2846     2845
       14       14       14       14        0        0        0        0        4        0     1116     2931     2930     2847     2846
       14       14       14       14        0        0        0        0        4        0     1117     2930     2929     2848     2847
       14       14       14       14        0        0        0        0        4        0     1118     2929     2928     2849     2848
       14       14       14       14        0        0        0        0        4        0     1119     2928     2927     2850     2849
       14       14       14       14        0        0        0        0        4        0     1120     2927     2926     2851     2850
       14       14       14       14        0        0        0        0        4        0     1121     2926     2925     2852     2851
       14       14       14       14        0        0        0        0        4        0     1122     2925     2924     2853     2852
       14       14       14       14        0        0        0        0        4        0     1123     2924     2923     2854     2853
       14       14       14       14        0        0        0        0        4        0     1124     2923     2922     2855     2854
       14       14       14       14        0        0        0        0        4        0     1125     2922     2921     2856     2855
! ... 8 like lines cut
!Material Id = {57EB93C8-3D3D-49D1-A9D0-99B2EDCABEAA}
/com,*********** Elements for Body 15 "Surface Body" ***********
et,15,181
keyo,15,3,2
eblock,19,solid,,206
(19i9)
       15       15       15       15        0        0        0        0        4        0     1133     1686     1479     1478     1685
       15       15       15       15        0        0        0        0        4        0     1134     1686     1687     1480     1479
       15       15       15       15        0        0        0        0        4        0     1135     1685     1478     1477     1684
       15       15       15       15        0        0        0        0        4        0     1136     1480     1687     1688     1481
       15       15       15       15        0        0        0        0        4        0     1137     1684     1477     1476     1683
       15       15       15       15        0        0        0        0        4        0     1138     1481     1688     1689     1482
       15       15       15       15        0        0        0        0        4        0     1139     1683     1476     1475     1682
       15       15       15       15        0        0        0        0        4        0     1140     1482     1689     1690     1483
       15       15       15       15        0        0        0        0        4        0     1141     1682     1475     1473     1680
       15       15       15       15        0        0        0        0        4        0     1142     1483     1690     1691     1484
       15       15       15       15        0        0        0        0        4        0     1143     1484     1691     1692     1485
       15       15       15       15        0        0        0        0        4        0     1144     1692     1693     1486     1485
       15       15       15       15        0        0        0        0        4        0     1145     1693     1694     1487     1486
       15       15       15       15        0        0        0        0        4        0     1146     1694     1695     1488     1487
       15       15       15       15        0        0        0        0        4        0     1147     1695     1696     1489     1488
       15       15       15       15        0        0        0        0        4        0     1148     1696     1697     1490     1489
       15       15       15       15        0        0        0        0        4        0     1149     1697     1698     1491     1490
       15       15       15       15        0        0        0        0        4        0     1150     1698     1699     1492     1491
       15       15       15       15        0        0        0        0        4        0     1151     1699     1700     1493     1492
       15       15       15       15        0        0        0        0        4        0     1152     1700     1701     1494     1493
! ... 187 like lines cut
!Material Id = {DB741ECC-996F-44FF-BD82-87CC57647BC4}
/com,*********** Elements for Body 16 "Surface Body" ***********
et,16,181
keyo,16,3,2
eblock,19,solid,,206
(19i9)
       16       16       16       16        0        0        0        0        4        0     1339     1893     1686     1685     1892
       16       16       16       16        0        0        0        0        4        0     1340     1893     1894     1687     1686
       16       16       16       16        0        0        0        0        4        0     1341     1892     1685     1684     1891
       16       16       16       16        0        0        0        0        4        0     1342     1687     1894     1895     1688
       16       16       16       16        0        0        0        0        4        0     1343     1891     1684     1683     1890
       16       16       16       16        0        0        0        0        4        0     1344     1688     1895     1896     1689
       16       16       16       16        0        0        0        0        4        0     1345     1890     1683     1682     1889
       16       16       16       16        0        0        0        0        4        0     1346     1689     1896     1897     1690
       16       16       16       16        0        0        0        0        4        0     1347     1889     1682     1680     1887
       16       16       16       16        0        0        0        0        4        0     1348     1690     1897     1898     1691
       16       16       16       16        0        0        0        0        4        0     1349     1691     1898     1899     1692
       16       16       16       16        0        0        0        0        4        0     1350     1899     1900     1693     1692
       16       16       16       16        0        0        0        0        4        0     1351     1900     1901     1694     1693
       16       16       16       16        0        0        0        0        4        0     1352     1901     1902     1695     1694
       16       16       16       16        0        0        0        0        4        0     1353     1902     1903     1696     1695
       16       16       16       16        0        0        0        0        4        0     1354     1903     1904     1697     1696
       16       16       16       16        0        0        0        0        4        0     1355     1904     1905     1698     1697
       16       16       16       16        0        0        0        0        4        0     1356     1905     1906     1699     1698
       16       16       16       16        0        0        0        0        4        0     1357     1906     1907     1700     1699
       16       16       16       16        0        0        0        0        4        0     1358     1907     1908     1701     1700
! ... 187 like lines cut
!Material Id = {697E2631-5BE3-44ED-94AB-C6C77AD29874}
/com,*********** Elements for Body 17 "Surface Body" ***********
et,17,181
keyo,17,3,2
eblock,19,solid,,205
(19i9)
       17       17       17       17        0        0        0        0        4        0     1545     1464     2095     2094     1465
       17       17       17       17        0        0        0        0        4        0     1546     1464     2299     2096     2095
       17       17       17       17        0        0        0        0        4        0     1547     2096     2299     2300     2097
       17       17       17       17        0        0        0        0        4        0     1548     2097     2300     2301     2098
       17       17       17       17        0        0        0        0        4        0     1549     2098     2301     2302     2099
       17       17       17       17        0        0        0        0        4        0     1550     2099     2302     2303     2100
       17       17       17       17        0        0        0        0        4        0     1551     2100     2303     2304     2101
       17       17       17       17        0        0        0        0        4        0     1552     2101     2304     2305     2102
       17       17       17       17        0        0        0        0        4        0     1553     2102     2305     2306     2103
       17       17       17       17        0        0        0        0        4        0     1554     2103     2306     2307     2104
       17       17       17       17        0        0        0        0        4        0     1555     2104     2307     2308     2105
       17       17       17       17        0        0        0        0        4        0     1556     2105     2308     2309     2106
       17       17       17       17        0        0        0        0        4        0     1557     2106     2309     2310     2107
       17       17       17       17        0        0        0        0        4        0     1558     2107     2310     2311     2108
       17       17       17       17        0        0        0        0        4        0     1559     2108     2311     2312     2109
       17       17       17       17        0        0        0        0        4        0     1560     2109     2312     2313     2110
       17       17       17       17        0        0        0        0        4        0     1561     2110     2313     2314     2111
       17       17       17       17        0        0        0        0        4        0     1562     2111     2314     2315     2112
       17       17       17       17        0        0        0        0        4        0     1563     2112     2315     2316     2113
       17       17       17       17        0        0        0        0        4        0     1564     2113     2316     2317     2114
! ... 186 like lines cut
!Material Id = {4EFF3DEC-D381-4BA1-AD93-5A5F61D9698B}
/com,*********** Elements for Body 18 "Surface Body" ***********
et,18,181
keyo,18,3,2
eblock,19,solid,,205
(19i9)
       18       18       18       18        0        0        0        0        4        0     1750     2115     2523     2522     2114
       18       18       18       18        0        0        0        0        4        0     1751     2115     2116     2524     2523
       18       18       18       18        0        0        0        0        4        0     1752     2114     2522     2521     2113
       18       18       18       18        0        0        0        0        4        0     1753     2524     2116     2117     2525
       18       18       18       18        0        0        0        0        4        0     1754     2113     2521     2520     2112
       18       18       18       18        0        0        0        0        4        0     1755     2525     2117     2118     2526
       18       18       18       18        0        0        0        0        4        0     1756     2112     2520     2519     2111
       18       18       18       18        0        0        0        0        4        0     1757     2526     2118     2119     2527
       18       18       18       18        0        0        0        0        4        0     1758     2111     2519     2518     2110
       18       18       18       18        0        0        0        0        4        0     1759     2527     2119     2120     2528
       18       18       18       18        0        0        0        0        4        0     1760     2110     2518     2517     2109
       18       18       18       18        0        0        0        0        4        0     1761     2528     2120     2121     2529
       18       18       18       18        0        0        0        0        4        0     1762     2109     2517     2516     2108
       18       18       18       18        0        0        0        0        4        0     1763     2529     2121     2122     2530
       18       18       18       18        0        0        0        0        4        0     1764     2108     2516     2515     2107
       18       18       18       18        0        0        0        0        4        0     1765     2530     2122     2123     2531
       18       18       18       18        0        0        0        0        4        0     1766     2107     2515     2514     2106
       18       18       18       18        0        0        0        0        4        0     1767     2531     2123     2124     2532
       18       18       18       18        0        0        0        0        4        0     1768     2106     2514     2513     2105
       18       18       18       18        0        0        0        0        4        0     1769     2532     2124     2125     2533
! ... 186 like lines cut
!Material Id = {022ADF4E-D2F1-46CB-B2D6-BD9CD3CD497C}
/com,*********** Elements for Body 19 "Surface Body" ***********
et,19,181
keyo,19,3,2
eblock,19,solid,,1
(19i9)
       19       19       19       19        0        0        0        0        4        0     1955     1463      890        4     1462
-1
!Material Id = {71FB39E5-05F0-4FA3-A33B-30B99501887C}
/com,*********** Elements for Body 20 "Surface Body" ***********
et,20,181
keyo,20,3,2
eblock,19,solid,,1
(19i9)
       20       20       20       20        0        0        0        0        4        0     1956     1470     1033      890     1463
-1
!Material Id = {6728D05F-D9F8-41C3-AE16-C5E4855F30FA}
/com,*********** Elements for Body 21 "Surface Body" ***********
et,21,181
keyo,21,3,2
eblock,19,solid,,1
(19i9)
       21       21       21       21        0        0        0        0        4        0     1957     1468     1465     2094     1469
-1
!Material Id = {D87D578F-4A47-4509-BEE7-F45BFA9DEC3D}
/com,*********** Elements for Body 22 "Surface Body" ***********
et,22,181
keyo,22,3,2
eblock,19,solid,,1
(19i9)
       22       22       22       22        0        0        0        0        4        0     1958     2094     2502     1472     1469
-1
!Material Id = {BF4E0F5C-1821-4579-ADA5-5317EFF44A21}
/wb,elem,end               !  done creating elements
/com,*********** Send User Defined Coordinate System(s) ***********
csys,0
toffst,273.15,  ! Temperature offset from absolute zero
/com,*********** Set Reference Temperature ***********
tref,22.
/wb,mat,start              !  starting to send materials
/com,*********** Send Materials ***********
MP,DENS,1,2.329e-15,	! kg um^-3
MP,ALPX,1,1.2e-05,	! C^-1
MP,C,1,434000000000000,	! pJ kg^-1 C^-1
MP,KXX,1,60500000,	! pW um^-1 C^-1
MP,RSVX,1,1.7e-13,	! Tohm um
MP,EX,1,148000,	! MPa
MP,NUXY,1,0.3,
MP,MURX,1,10000,

MP,DENS,2,2.329e-15,	! kg um^-3
MP,ALPX,2,1.2e-05,	! C^-1
MP,C,2,434000000000000,	! pJ kg^-1 C^-1
MP,KXX,2,60500000,	! pW um^-1 C^-1
MP,RSVX,2,1.7e-13,	! Tohm um
MP,EX,2,148000,	! MPa
MP,NUXY,2,0.3,
MP,MURX,2,10000,

MP,DENS,3,2.329e-15,	! kg um^-3
MP,ALPX,3,1.2e-05,	! C^-1
MP,C,3,434000000000000,	! pJ kg^-1 C^-1
MP,KXX,3,60500000,	! pW um^-1 C^-1
MP,RSVX,3,1.7e-13,	! Tohm um
MP,EX,3,148000,	! MPa
MP,NUXY,3,0.3,
MP,MURX,3,10000,

MP,DENS,4,2.329e-15,	! kg um^-3
MP,ALPX,4,1.2e-05,	! C^-1
MP,C,4,434000000000000,	! pJ kg^-1 C^-1
MP,KXX,4,60500000,	! pW um^-1 C^-1
MP,RSVX,4,1.7e-13,	! Tohm um
MP,EX,4,148000,	! MPa
MP,NUXY,4,0.3,
MP,MURX,4,10000,

MP,DENS,5,2.329e-15,	! kg um^-3
MP,ALPX,5,1.2e-05,	! C^-1
MP,C,5,434000000000000,	! pJ kg^-1 C^-1
MP,KXX,5,60500000,	! pW um^-1 C^-1
MP,RSVX,5,1.7e-13,	! Tohm um
MP,EX,5,148000,	! MPa
MP,NUXY,5,0.3,
MP,MURX,5,10000,

MP,DENS,6,2.329e-15,	! kg um^-3
MP,ALPX,6,1.2e-05,	! C^-1
MP,C,6,434000000000000,	! pJ kg^-1 C^-1
MP,KXX,6,60500000,	! pW um^-1 C^-1
MP,RSVX,6,1.7e-13,	! Tohm um
MP,EX,6,148000,	! MPa
MP,NUXY,6,0.3,
MP,MURX,6,10000,

MP,DENS,7,2.329e-15,	! kg um^-3
MP,ALPX,7,1.2e-05,	! C^-1
MP,C,7,434000000000000,	! pJ kg^-1 C^-1
MP,KXX,7,60500000,	! pW um^-1 C^-1
MP,RSVX,7,1.7e-13,	! Tohm um
MP,EX,7,148000,	! MPa
MP,NUXY,7,0.3,
MP,MURX,7,10000,

MP,DENS,8,2.329e-15,	! kg um^-3
MP,ALPX,8,1.2e-05,	! C^-1
MP,C,8,434000000000000,	! pJ kg^-1 C^-1
MP,KXX,8,60500000,	! pW um^-1 C^-1
MP,RSVX,8,1.7e-13,	! Tohm um
MP,EX,8,148000,	! MPa
MP,NUXY,8,0.3,
MP,MURX,8,10000,

MP,DENS,9,2.329e-15,	! kg um^-3
MP,ALPX,9,1.2e-05,	! C^-1
MP,C,9,434000000000000,	! pJ kg^-1 C^-1
MP,KXX,9,60500000,	! pW um^-1 C^-1
MP,RSVX,9,1.7e-13,	! Tohm um
MP,EX,9,148000,	! MPa
MP,NUXY,9,0.3,
MP,MURX,9,10000,

MP,DENS,10,2.329e-15,	! kg um^-3
MP,ALPX,10,1.2e-05,	! C^-1
MP,C,10,434000000000000,	! pJ kg^-1 C^-1
MP,KXX,10,60500000,	! pW um^-1 C^-1
MP,RSVX,10,1.7e-13,	! Tohm um
MP,EX,10,148000,	! MPa
MP,NUXY,10,0.3,
MP,MURX,10,10000,

MP,DENS,11,2.329e-15,	! kg um^-3
MP,ALPX,11,1.2e-05,	! C^-1
MP,C,11,434000000000000,	! pJ kg^-1 C^-1
MP,KXX,11,60500000,	! pW um^-1 C^-1
MP,RSVX,11,1.7e-13,	! Tohm um
MP,EX,11,148000,	! MPa
MP,NUXY,11,0.3,
MP,MURX,11,10000,

MP,DENS,12,2.329e-15,	! kg um^-3
MP,ALPX,12,1.2e-05,	! C^-1
MP,C,12,434000000000000,	! pJ kg^-1 C^-1
MP,KXX,12,60500000,	! pW um^-1 C^-1
MP,RSVX,12,1.7e-13,	! Tohm um
MP,EX,12,148000,	! MPa
MP,NUXY,12,0.3,
MP,MURX,12,10000,

MP,DENS,13,2.329e-15,	! kg um^-3
MP,ALPX,13,1.2e-05,	! C^-1
MP,C,13,434000000000000,	! pJ kg^-1 C^-1
MP,KXX,13,60500000,	! pW um^-1 C^-1
MP,RSVX,13,1.7e-13,	! Tohm um
MP,EX,13,148000,	! MPa
MP,NUXY,13,0.3,
MP,MURX,13,10000,

MP,DENS,14,2.329e-15,	! kg um^-3
MP,ALPX,14,1.2e-05,	! C^-1
MP,C,14,434000000000000,	! pJ kg^-1 C^-1
MP,KXX,14,60500000,	! pW um^-1 C^-1
MP,RSVX,14,1.7e-13,	! Tohm um
MP,EX,14,148000,	! MPa
MP,NUXY,14,0.3,
MP,MURX,14,10000,

MP,DENS,15,2.329e-15,	! kg um^-3
MP,ALPX,15,1.2e-05,	! C^-1
MP,C,15,434000000000000,	! pJ kg^-1 C^-1
MP,KXX,15,60500000,	! pW um^-1 C^-1
MP,RSVX,15,1.7e-13,	! Tohm um
MP,EX,15,148000,	! MPa
MP,NUXY,15,0.3,
MP,MURX,15,10000,

MP,DENS,16,2.329e-15,	! kg um^-3
MP,ALPX,16,1.2e-05,	! C^-1
MP,C,16,434000000000000,	! pJ kg^-1 C^-1
MP,KXX,16,60500000,	! pW um^-1 C^-1
MP,RSVX,16,1.7e-13,	! Tohm um
MP,EX,16,148000,	! MPa
MP,NUXY,16,0.3,
MP,MURX,16,10000,

MP,DENS,17,2.329e-15,	! kg um^-3
MP,ALPX,17,1.2e-05,	! C^-1
MP,C,17,434000000000000,	! pJ kg^-1 C^-1
MP,KXX,17,60500000,	! pW um^-1 C^-1
MP,RSVX,17,1.7e-13,	! Tohm um
MP,EX,17,148000,	! MPa
MP,NUXY,17,0.3,
MP,MURX,17,10000,

MP,DENS,18,2.329e-15,	! kg um^-3
MP,ALPX,18,1.2e-05,	! C^-1
MP,C,18,434000000000000,	! pJ kg^-1 C^-1
MP,KXX,18,60500000,	! pW um^-1 C^-1
MP,RSVX,18,1.7e-13,	! Tohm um
MP,EX,18,148000,	! MPa
MP,NUXY,18,0.3,
MP,MURX,18,10000,

MP,DENS,19,2.329e-15,	! kg um^-3
MP,ALPX,19,1.2e-05,	! C^-1
MP,C,19,434000000000000,	! pJ kg^-1 C^-1
MP,KXX,19,60500000,	! pW um^-1 C^-1
MP,RSVX,19,1.7e-13,	! Tohm um
MP,EX,19,148000,	! MPa
MP,NUXY,19,0.3,
MP,MURX,19,10000,

MP,DENS,20,2.329e-15,	! kg um^-3
MP,ALPX,20,1.2e-05,	! C^-1
MP,C,20,434000000000000,	! pJ kg^-1 C^-1
MP,KXX,20,60500000,	! pW um^-1 C^-1
MP,RSVX,20,1.7e-13,	! Tohm um
MP,EX,20,148000,	! MPa
MP,NUXY,20,0.3,
MP,MURX,20,10000,

MP,DENS,21,2.329e-15,	! kg um^-3
MP,ALPX,21,1.2e-05,	! C^-1
MP,C,21,434000000000000,	! pJ kg^-1 C^-1
MP,KXX,21,60500000,	! pW um^-1 C^-1
MP,RSVX,21,1.7e-13,	! Tohm um
MP,EX,21,148000,	! MPa
MP,NUXY,21,0.3,
MP,MURX,21,10000,

MP,DENS,22,2.329e-15,	! kg um^-3
MP,ALPX,22,1.2e-05,	! C^-1
MP,C,22,434000000000000,	! pJ kg^-1 C^-1
MP,KXX,22,60500000,	! pW um^-1 C^-1
MP,RSVX,22,1.7e-13,	! Tohm um
MP,EX,22,148000,	! MPa
MP,NUXY,22,0.3,
MP,MURX,22,10000,

/wb,mat,end                !  done sending materials
/com,*********** Send Sheet Properties ***********
sectype,1,shell
secdata,10.
secoff,mid
sectype,2,shell
secdata,10.
secoff,mid
sectype,3,shell
secdata,10.
secoff,mid
sectype,4,shell
secdata,10.
secoff,mid
sectype,5,shell
secdata,10.
secoff,mid
sectype,6,shell
secdata,10.
secoff,mid
sectype,7,shell
secdata,10.
secoff,mid
sectype,8,shell
secdata,10.
secoff,mid
sectype,9,shell
secdata,10.
secoff,mid
sectype,10,shell
secdata,10.
secoff,mid
sectype,11,shell
secdata,10.
secoff,mid
sectype,12,shell
secdata,10.
secoff,mid
sectype,13,shell
secdata,10.
secoff,mid
sectype,14,shell
secdata,10.
secoff,mid
sectype,15,shell
secdata,10.
secoff,mid
sectype,16,shell
secdata,10.
secoff,mid
sectype,17,shell
secdata,10.
secoff,mid
sectype,18,shell
secdata,10.
secoff,mid
sectype,19,shell
secdata,10.
secoff,mid
sectype,20,shell
secdata,10.
secoff,mid
sectype,21,shell
secdata,10.
secoff,mid
sectype,22,shell
secdata,10.
secoff,mid
!************************* Model Summary ********************
!Surface Body,	Structural Steel,	matid,	1
!Surface Body,	Structural Steel,	matid,	2
!Surface Body,	Structural Steel,	matid,	3
!Surface Body,	Structural Steel,	matid,	4
!Surface Body,	Structural Steel,	matid,	5
!Surface Body,	Structural Steel,	matid,	6
!Surface Body,	Structural Steel,	matid,	7
!Surface Body,	Structural Steel,	matid,	8
!Surface Body,	Structural Steel,	matid,	9
!Surface Body,	Structural Steel,	matid,	10
!UPP,	Structural Steel,	matid,	11
!Surface Body,	Structural Steel,	matid,	12
!Surface Body,	Structural Steel,	matid,	13
!Surface Body,	Structural Steel,	matid,	14
!Surface Body,	Structural Steel,	matid,	15
!Surface Body,	Structural Steel,	matid,	16
!Surface Body,	Structural Steel,	matid,	17
!Surface Body,	Structural Steel,	matid,	18
!Surface Body,	Structural Steel,	matid,	19
!Surface Body,	Structural Steel,	matid,	20
!Surface Body,	Structural Steel,	matid,	21
!Surface Body,	Structural Steel,	matid,	22
!************************* End Model Summary ********************
! get the diagonal of the bounding box. Needed later for other things
*get,_xmin,node,,mnloc,x
*get,_ymin,node,,mnloc,y
*get,_zmin,node,,mnloc,z
*get,_xmax,node,,mxloc,x
*get,_ymax,node,,mxloc,y
*get,_zmax,node,,mxloc,z
_ASMDIAG=(_xmax-_xmin)*(_xmax-_xmin)+(_ymax-_ymin)*(_ymax-_ymin)+(_zmax-_zmin)*(_zmax-_zmin)
_ASMDIAG=SQRT(_ASMDIAG)
/wb,contact,start          !  starting to send contact
/com,*********** Create Contact "Contact Region" ***********
/com,            Real Contact Set For Above Contact Is 24 & 23 
*set,tid,24
*set,cid,23
r,tid
r,cid
et,tid,170
et,cid,174
eblock,10,,,3
(15i9)
     1959       24       24       24        0     1178     1030     1031     1177
     1960       24       24       24        0     1177     1031     1032        1
     1961       24       24       24        0        1     1032      890        4
-1
eblock,10,,,3
(15i9)
     1962       23       23       23        0     1178     1030     1031     1177
     1963       23       23       23        0     1177     1031     1032        1
     1964       23       23       23        0        1     1032      890        4
-1
eblock,10,,,1
(15i9)
     1965       23       24       23        0     1470     1033      890     1463
-1
eblock,10,,,1
(15i9)
     1966       24       23       24        0     1470     1033      890     1463
-1
esel,s,type,,23
cm,_AllContacts,elem
keyo,cid,8,2               ! auto create asymmetric contact (from Program Controlled setting)
keyo,cid,10,2              ! adjust contact stiffness each NR iteration (from Program Controlled setting)
keyo,cid,12,5              ! bonded always
keyo,cid,2,0               ! augmented Lagrange (from Program Controlled setting)
keyo,cid,4,0               ! on Gauss point (from Program Controlled setting)
keyo,cid,9,1               ! ignore initial gaps/penetration
keyo,cid,7,0               ! No Prediction
rmod,tid,3,10.	! FKN
rmod,tid,5,0.	! ICONT
rmod,tid,6,-1.23293736109373	! PINB
rmod,tid,10,0.	! CNOF
rmod,tid,12,0.	! FKT
rmod,cid,3,10.	! FKN
rmod,cid,5,0.	! ICONT
rmod,cid,6,-1.23293736109373	! PINB
rmod,cid,10,0.	! CNOF
rmod,cid,12,0.	! FKT
/com,*********** Create Contact "Contact Region 2" ***********
/com,            Real Contact Set For Above Contact Is 26 & 25 
*set,tid,26
*set,cid,25
r,tid
r,cid
et,tid,170
et,cid,174
eblock,10,,,3
(15i9)
     1967       26       26       26        0     1684     1891     1890     1683
     1968       26       26       26        0     1683     1890     1889     1682
     1969       26       26       26        0     1682     1889     1887     1680
-1
eblock,10,,,3
(15i9)
     1970       25       25       25        0     1684     1891     1890     1683
     1971       25       25       25        0     1683     1890     1889     1682
     1972       25       25       25        0     1682     1889     1887     1680
-1
eblock,10,,,3
(15i9)
     1973       25       26       25        0     2296     2297     2705     2704
     1974       25       26       25        0     2297     2298     2706     2705
     1975       25       26       25        0     1680     1473     2706     2298
-1
eblock,10,,,3
(15i9)
     1976       26       25       26        0     2296     2297     2705     2704
     1977       26       25       26        0     2297     2298     2706     2705
     1978       26       25       26        0     1680     1473     2706     2298
-1
esel,s,type,,25
cm,contactElems2482,elem
cmsel,a,_AllContacts,elem
cm,_AllContacts,elem
cmsel,s,contactElems2482,elem
cmdele,contactElems2482
keyo,cid,8,2               ! auto create asymmetric contact (from Program Controlled setting)
keyo,cid,10,2              ! adjust contact stiffness each NR iteration (from Program Controlled setting)
keyo,cid,12,5              ! bonded always
keyo,cid,2,0               ! augmented Lagrange (from Program Controlled setting)
keyo,cid,4,0               ! on Gauss point (from Program Controlled setting)
keyo,cid,9,1               ! ignore initial gaps/penetration
keyo,cid,7,0               ! No Prediction
rmod,tid,3,10.	! FKN
rmod,tid,5,0.	! ICONT
rmod,tid,6,-1.23293736109373	! PINB
rmod,tid,10,0.	! CNOF
rmod,tid,12,0.	! FKT
rmod,cid,3,10.	! FKN
rmod,cid,5,0.	! ICONT
rmod,cid,6,-1.23293736109373	! PINB
rmod,cid,10,0.	! CNOF
rmod,cid,12,0.	! FKT
nsel,all
esel,all
/wb,contact,end            !  done creating contacts
/golist
/wb,load,start             !  starting to send loads
/com,*********** Fixed Supports ***********
CMBLOCK,_FIXEDSU,NODE,       12
(8i10)
         5         6       501       600       601      1318      1466      1467
      1471      1474      1681      1888
cmsel,s,_FIXEDSU
d,all,all
nsel,all
nsel,all
/com,*********** Define Vertex Force Using Follower Elements ***********
et,27,201
keyo,27,1,1           ! Keep the direction constant
keyo,27,2,1           ! Apply Forces only, not moment
mat,27
real,27
type,27
en,1979,3
r,27
rmod,27,1,1.0,              ! FX
mat,28
real,28
type,27
en,1980,3
r,28
rmod,28,2,1.0,              ! FY
mat,29
real,29
type,27
en,1981,3
r,29
rmod,29,3,1.0,              ! FZ

*DIM,_loadvari520x,TABLE,2,1,1,TIME,
! Time values
_loadvari520x(1,0,1) = 0.
_loadvari520x(2,0,1) = 1.
! Load values
_loadvari520x(1,1,1) = 0.
_loadvari520x(2,1,1) = 0.


*DIM,_loadvari520y,TABLE,2,1,1,TIME,
! Time values
_loadvari520y(1,0,1) = 0.
_loadvari520y(2,0,1) = 1.
! Load values
_loadvari520y(1,1,1) = 0.
_loadvari520y(2,1,1) = -20.


*DIM,_loadvari520z,TABLE,2,1,1,TIME,
! Time values
_loadvari520z(1,0,1) = 0.
_loadvari520z(2,0,1) = 1.
! Load values
_loadvari520z(1,1,1) = 0.
_loadvari520z(2,1,1) = 0.

et,30,14             ! spring element type
/com,*********** Construct Weak Springs, Prototype 1 ***********
*set,_delta,0.989460250642138
type,30
mat,31
real,31
r,31,1.40459689741093e-004
nsel,all
*get,_nspr,ndmx
_nspr=_nspr+1
esel,s,mat,,1
nsle,s,active
*get,_minx,node,0,mnloc,x
*get,_miny,node,0,mnloc,y
*get,_minz,node,0,mnloc,z
*get,_maxx,node,0,mxloc,x
*get,_maxy,node,0,mxloc,y
*get,_maxz,node,0,mxloc,z
*dim,_ntets,arra,8
_ntets(1) = NODE(_minx,_miny,_minz)
_ntets(2) = NODE(_minx,_miny,_maxz)
_ntets(3) = NODE(_minx,_maxy,_minz)
_ntets(4) = NODE(_minx,_maxy,_maxz)
_ntets(5) = NODE(_maxx,_miny,_minz)
_ntets(6) = NODE(_maxx,_miny,_maxz)
_ntets(7) = NODE(_maxx,_maxy,_minz)
_ntets(8) = NODE(_maxx,_maxy,_maxz)
*do,_i,1,8
  n,_nspr,nx(_ntets(_i))+_delta,ny(_ntets(_i)),nz(_ntets(_i))
  e,_ntets(_i),_nspr
  d,_nspr,all
  _nspr=_nspr+1
  n,_nspr,nx(_ntets(_i)),ny(_ntets(_i))+_delta,nz(_ntets(_i))
  e,_ntets(_i),_nspr
  d,_nspr,all
  _nspr=_nspr+1
  n,_nspr,nx(_ntets(_i)),ny(_ntets(_i)),nz(_ntets(_i))+_delta
  e,_ntets(_i),_nspr
  d,_nspr,all
  _nspr=_nspr+1
*enddo
*set,_ntets
nsel,all
esel,all
/com,*********** Construct Weak Springs, Prototype 2 ***********
*set,_delta,4.57523377135586
type,30
mat,32
real,32
r,32,1.36843927910816e-004
nsel,all
*get,_nspr,ndmx
_nspr=_nspr+1
esel,s,mat,,2
nsle,s,active
*get,_minx,node,0,mnloc,x
*get,_miny,node,0,mnloc,y
*get,_minz,node,0,mnloc,z
*get,_maxx,node,0,mxloc,x
*get,_maxy,node,0,mxloc,y
*get,_maxz,node,0,mxloc,z
*dim,_ntets,arra,8
_ntets(1) = NODE(_minx,_miny,_minz)
_ntets(2) = NODE(_minx,_miny,_maxz)
_ntets(3) = NODE(_minx,_maxy,_minz)
_ntets(4) = NODE(_minx,_maxy,_maxz)
_ntets(5) = NODE(_maxx,_miny,_minz)
_ntets(6) = NODE(_maxx,_miny,_maxz)
_ntets(7) = NODE(_maxx,_maxy,_minz)
_ntets(8) = NODE(_maxx,_maxy,_maxz)
*do,_i,1,8
  n,_nspr,nx(_ntets(_i))+_delta,ny(_ntets(_i)),nz(_ntets(_i))
  e,_ntets(_i),_nspr
  d,_nspr,all
  _nspr=_nspr+1
  n,_nspr,nx(_ntets(_i)),ny(_ntets(_i))+_delta,nz(_ntets(_i))
  e,_ntets(_i),_nspr
  d,_nspr,all
  _nspr=_nspr+1
  n,_nspr,nx(_ntets(_i)),ny(_ntets(_i)),nz(_ntets(_i))+_delta
  e,_ntets(_i),_nspr
  d,_nspr,all
  _nspr=_nspr+1
*enddo
*set,_ntets
nsel,all
esel,all
/com,*********** Construct Weak Springs, Prototype 3 ***********
*set,_delta,4.57523377135586
type,30
mat,33
real,33
r,33,1.36843927910779e-004
nsel,all
*get,_nspr,ndmx
_nspr=_nspr+1
esel,s,mat,,3
nsle,s,active
*get,_minx,node,0,mnloc,x
*get,_miny,node,0,mnloc,y
*get,_minz,node,0,mnloc,z
*get,_maxx,node,0,mxloc,x
*get,_maxy,node,0,mxloc,y
*get,_maxz,node,0,mxloc,z
*dim,_ntets,arra,8
_ntets(1) = NODE(_minx,_miny,_minz)
_ntets(2) = NODE(_minx,_miny,_maxz)
_ntets(3) = NODE(_minx,_maxy,_minz)
_ntets(4) = NODE(_minx,_maxy,_maxz)
_ntets(5) = NODE(_maxx,_miny,_minz)
_ntets(6) = NODE(_maxx,_miny,_maxz)
_ntets(7) = NODE(_maxx,_maxy,_minz)
_ntets(8) = NODE(_maxx,_maxy,_maxz)
*do,_i,1,8
  n,_nspr,nx(_ntets(_i))+_delta,ny(_ntets(_i)),nz(_ntets(_i))
  e,_ntets(_i),_nspr
  d,_nspr,all
  _nspr=_nspr+1
  n,_nspr,nx(_ntets(_i)),ny(_ntets(_i))+_delta,nz(_ntets(_i))
  e,_ntets(_i),_nspr
  d,_nspr,all
  _nspr=_nspr+1
  n,_nspr,nx(_ntets(_i)),ny(_ntets(_i)),nz(_ntets(_i))+_delta
  e,_ntets(_i),_nspr
  d,_nspr,all
  _nspr=_nspr+1
*enddo
*set,_ntets
nsel,all
esel,all
/com,*********** Construct Weak Springs, Prototype 4 ***********
*set,_delta,4.57523377135586
type,30
mat,34
real,34
r,34,1.36843927910816e-004
nsel,all
*get,_nspr,ndmx
_nspr=_nspr+1
esel,s,mat,,4
nsle,s,active
*get,_minx,node,0,mnloc,x
*get,_miny,node,0,mnloc,y
*get,_minz,node,0,mnloc,z
*get,_maxx,node,0,mxloc,x
*get,_maxy,node,0,mxloc,y
*get,_maxz,node,0,mxloc,z
*dim,_ntets,arra,8
_ntets(1) = NODE(_minx,_miny,_minz)
_ntets(2) = NODE(_minx,_miny,_maxz)
_ntets(3) = NODE(_minx,_maxy,_minz)
_ntets(4) = NODE(_minx,_maxy,_maxz)
_ntets(5) = NODE(_maxx,_miny,_minz)
_ntets(6) = NODE(_maxx,_miny,_maxz)
_ntets(7) = NODE(_maxx,_maxy,_minz)
_ntets(8) = NODE(_maxx,_maxy,_maxz)
*do,_i,1,8
  n,_nspr,nx(_ntets(_i))+_delta,ny(_ntets(_i)),nz(_ntets(_i))
  e,_ntets(_i),_nspr
  d,_nspr,all
  _nspr=_nspr+1
  n,_nspr,nx(_ntets(_i)),ny(_ntets(_i))+_delta,nz(_ntets(_i))
  e,_ntets(_i),_nspr
  d,_nspr,all
  _nspr=_nspr+1
  n,_nspr,nx(_ntets(_i)),ny(_ntets(_i)),nz(_ntets(_i))+_delta
  e,_ntets(_i),_nspr
  d,_nspr,all
  _nspr=_nspr+1
*enddo
*set,_ntets
nsel,all
esel,all
/com,*********** Construct Weak Springs, Prototype 5 ***********
*set,_delta,4.57523377135586
type,30
mat,35
real,35
r,35,1.36843927910742e-004
nsel,all
*get,_nspr,ndmx
_nspr=_nspr+1
esel,s,mat,,5
nsle,s,active
*get,_minx,node,0,mnloc,x
*get,_miny,node,0,mnloc,y
*get,_minz,node,0,mnloc,z
*get,_maxx,node,0,mxloc,x
*get,_maxy,node,0,mxloc,y
*get,_maxz,node,0,mxloc,z
*dim,_ntets,arra,8
_ntets(1) = NODE(_minx,_miny,_minz)
_ntets(2) = NODE(_minx,_miny,_maxz)
_ntets(3) = NODE(_minx,_maxy,_minz)
_ntets(4) = NODE(_minx,_maxy,_maxz)
_ntets(5) = NODE(_maxx,_miny,_minz)
_ntets(6) = NODE(_maxx,_miny,_maxz)
_ntets(7) = NODE(_maxx,_maxy,_minz)
_ntets(8) = NODE(_maxx,_maxy,_maxz)
*do,_i,1,8
  n,_nspr,nx(_ntets(_i))+_delta,ny(_ntets(_i)),nz(_ntets(_i))
  e,_ntets(_i),_nspr
  d,_nspr,all
  _nspr=_nspr+1
  n,_nspr,nx(_ntets(_i)),ny(_ntets(_i))+_delta,nz(_ntets(_i))
  e,_ntets(_i),_nspr
  d,_nspr,all
  _nspr=_nspr+1
  n,_nspr,nx(_ntets(_i)),ny(_ntets(_i)),nz(_ntets(_i))+_delta
  e,_ntets(_i),_nspr
  d,_nspr,all
  _nspr=_nspr+1
*enddo
*set,_ntets
nsel,all
esel,all
/com,*********** Construct Weak Springs, Prototype 6 ***********
*set,_delta,6.6501608308833
type,30
mat,36
real,36
r,36,1.36797183612908e-004
nsel,all
*get,_nspr,ndmx
_nspr=_nspr+1
esel,s,mat,,6
nsle,s,active
*get,_minx,node,0,mnloc,x
*get,_miny,node,0,mnloc,y
*get,_minz,node,0,mnloc,z
*get,_maxx,node,0,mxloc,x
*get,_maxy,node,0,mxloc,y
*get,_maxz,node,0,mxloc,z
*dim,_ntets,arra,8
_ntets(1) = NODE(_minx,_miny,_minz)
_ntets(2) = NODE(_minx,_miny,_maxz)
_ntets(3) = NODE(_minx,_maxy,_minz)
_ntets(4) = NODE(_minx,_maxy,_maxz)
_ntets(5) = NODE(_maxx,_miny,_minz)
_ntets(6) = NODE(_maxx,_miny,_maxz)
_ntets(7) = NODE(_maxx,_maxy,_minz)
_ntets(8) = NODE(_maxx,_maxy,_maxz)
*do,_i,1,8
  n,_nspr,nx(_ntets(_i))+_delta,ny(_ntets(_i)),nz(_ntets(_i))
  e,_ntets(_i),_nspr
  d,_nspr,all
  _nspr=_nspr+1
  n,_nspr,nx(_ntets(_i)),ny(_ntets(_i))+_delta,nz(_ntets(_i))
  e,_ntets(_i),_nspr
  d,_nspr,all
  _nspr=_nspr+1
  n,_nspr,nx(_ntets(_i)),ny(_ntets(_i)),nz(_ntets(_i))+_delta
  e,_ntets(_i),_nspr
  d,_nspr,all
  _nspr=_nspr+1
*enddo
*set,_ntets
nsel,all
esel,all
/com,*********** Construct Weak Springs, Prototype 7 ***********
*set,_delta,6.60391228149169
type,30
mat,37
real,37
r,37,1.36796464345108e-004
nsel,all
*get,_nspr,ndmx
_nspr=_nspr+1
esel,s,mat,,7
nsle,s,active
*get,_minx,node,0,mnloc,x
*get,_miny,node,0,mnloc,y
*get,_minz,node,0,mnloc,z
*get,_maxx,node,0,mxloc,x
*get,_maxy,node,0,mxloc,y
*get,_maxz,node,0,mxloc,z
*dim,_ntets,arra,8
_ntets(1) = NODE(_minx,_miny,_minz)
_ntets(2) = NODE(_minx,_miny,_maxz)
_ntets(3) = NODE(_minx,_maxy,_minz)
_ntets(4) = NODE(_minx,_maxy,_maxz)
_ntets(5) = NODE(_maxx,_miny,_minz)
_ntets(6) = NODE(_maxx,_miny,_maxz)
_ntets(7) = NODE(_maxx,_maxy,_minz)
_ntets(8) = NODE(_maxx,_maxy,_maxz)
*do,_i,1,8
  n,_nspr,nx(_ntets(_i))+_delta,ny(_ntets(_i)),nz(_ntets(_i))
  e,_ntets(_i),_nspr
  d,_nspr,all
  _nspr=_nspr+1
  n,_nspr,nx(_ntets(_i)),ny(_ntets(_i))+_delta,nz(_ntets(_i))
  e,_ntets(_i),_nspr
  d,_nspr,all
  _nspr=_nspr+1
  n,_nspr,nx(_ntets(_i)),ny(_ntets(_i)),nz(_ntets(_i))+_delta
  e,_ntets(_i),_nspr
  d,_nspr,all
  _nspr=_nspr+1
*enddo
*set,_ntets
nsel,all
esel,all
/com,*********** Construct Weak Springs, Prototype 8 ***********
*set,_delta,6.60391228149169
type,30
mat,38
real,38
r,38,1.36796464345183e-004
nsel,all
*get,_nspr,ndmx
_nspr=_nspr+1
esel,s,mat,,8
nsle,s,active
*get,_minx,node,0,mnloc,x
*get,_miny,node,0,mnloc,y
*get,_minz,node,0,mnloc,z
*get,_maxx,node,0,mxloc,x
*get,_maxy,node,0,mxloc,y
*get,_maxz,node,0,mxloc,z
*dim,_ntets,arra,8
_ntets(1) = NODE(_minx,_miny,_minz)
_ntets(2) = NODE(_minx,_miny,_maxz)
_ntets(3) = NODE(_minx,_maxy,_minz)
_ntets(4) = NODE(_minx,_maxy,_maxz)
_ntets(5) = NODE(_maxx,_miny,_minz)
_ntets(6) = NODE(_maxx,_miny,_maxz)
_ntets(7) = NODE(_maxx,_maxy,_minz)
_ntets(8) = NODE(_maxx,_maxy,_maxz)
*do,_i,1,8
  n,_nspr,nx(_ntets(_i))+_delta,ny(_ntets(_i)),nz(_ntets(_i))
  e,_ntets(_i),_nspr
  d,_nspr,all
  _nspr=_nspr+1
  n,_nspr,nx(_ntets(_i)),ny(_ntets(_i))+_delta,nz(_ntets(_i))
  e,_ntets(_i),_nspr
  d,_nspr,all
  _nspr=_nspr+1
  n,_nspr,nx(_ntets(_i)),ny(_ntets(_i)),nz(_ntets(_i))+_delta
  e,_ntets(_i),_nspr
  d,_nspr,all
  _nspr=_nspr+1
*enddo
*set,_ntets
nsel,all
esel,all
/com,*********** Construct Weak Springs, Prototype 9 ***********
*set,_delta,6.6501608308833
type,30
mat,39
real,39
r,39,1.36797183612984e-004
nsel,all
*get,_nspr,ndmx
_nspr=_nspr+1
esel,s,mat,,9
nsle,s,active
*get,_minx,node,0,mnloc,x
*get,_miny,node,0,mnloc,y
*get,_minz,node,0,mnloc,z
*get,_maxx,node,0,mxloc,x
*get,_maxy,node,0,mxloc,y
*get,_maxz,node,0,mxloc,z
*dim,_ntets,arra,8
_ntets(1) = NODE(_minx,_miny,_minz)
_ntets(2) = NODE(_minx,_miny,_maxz)
_ntets(3) = NODE(_minx,_maxy,_minz)
_ntets(4) = NODE(_minx,_maxy,_maxz)
_ntets(5) = NODE(_maxx,_miny,_minz)
_ntets(6) = NODE(_maxx,_miny,_maxz)
_ntets(7) = NODE(_maxx,_maxy,_minz)
_ntets(8) = NODE(_maxx,_maxy,_maxz)
*do,_i,1,8
  n,_nspr,nx(_ntets(_i))+_delta,ny(_ntets(_i)),nz(_ntets(_i))
  e,_ntets(_i),_nspr
  d,_nspr,all
  _nspr=_nspr+1
  n,_nspr,nx(_ntets(_i)),ny(_ntets(_i))+_delta,nz(_ntets(_i))
  e,_ntets(_i),_nspr
  d,_nspr,all
  _nspr=_nspr+1
  n,_nspr,nx(_ntets(_i)),ny(_ntets(_i)),nz(_ntets(_i))+_delta
  e,_ntets(_i),_nspr
  d,_nspr,all
  _nspr=_nspr+1
*enddo
*set,_ntets
nsel,all
esel,all
/com,*********** Construct Weak Springs, Prototype 10 ***********
*set,_delta,0.886041986730718
type,30
mat,40
real,40
r,40,1.32488325228517e-004
nsel,all
*get,_nspr,ndmx
_nspr=_nspr+1
esel,s,mat,,10
nsle,s,active
*get,_minx,node,0,mnloc,x
*get,_miny,node,0,mnloc,y
*get,_minz,node,0,mnloc,z
*get,_maxx,node,0,mxloc,x
*get,_maxy,node,0,mxloc,y
*get,_maxz,node,0,mxloc,z
*dim,_ntets,arra,8
_ntets(1) = NODE(_minx,_miny,_minz)
_ntets(2) = NODE(_minx,_miny,_maxz)
_ntets(3) = NODE(_minx,_maxy,_minz)
_ntets(4) = NODE(_minx,_maxy,_maxz)
_ntets(5) = NODE(_maxx,_miny,_minz)
_ntets(6) = NODE(_maxx,_miny,_maxz)
_ntets(7) = NODE(_maxx,_maxy,_minz)
_ntets(8) = NODE(_maxx,_maxy,_maxz)
*do,_i,1,8
  n,_nspr,nx(_ntets(_i))+_delta,ny(_ntets(_i)),nz(_ntets(_i))
  e,_ntets(_i),_nspr
  d,_nspr,all
  _nspr=_nspr+1
  n,_nspr,nx(_ntets(_i)),ny(_ntets(_i))+_delta,nz(_ntets(_i))
  e,_ntets(_i),_nspr
  d,_nspr,all
  _nspr=_nspr+1
  n,_nspr,nx(_ntets(_i)),ny(_ntets(_i)),nz(_ntets(_i))+_delta
  e,_ntets(_i),_nspr
  d,_nspr,all
  _nspr=_nspr+1
*enddo
*set,_ntets
nsel,all
esel,all
/com,*********** Construct Weak Springs, Prototype 11 ***********
*set,_delta,0.989459952094825
type,30
mat,41
real,41
r,41,1.40459689741132e-004
nsel,all
*get,_nspr,ndmx
_nspr=_nspr+1
esel,s,mat,,11
nsle,s,active
*get,_minx,node,0,mnloc,x
*get,_miny,node,0,mnloc,y
*get,_minz,node,0,mnloc,z
*get,_maxx,node,0,mxloc,x
*get,_maxy,node,0,mxloc,y
*get,_maxz,node,0,mxloc,z
*dim,_ntets,arra,8
_ntets(1) = NODE(_minx,_miny,_minz)
_ntets(2) = NODE(_minx,_miny,_maxz)
_ntets(3) = NODE(_minx,_maxy,_minz)
_ntets(4) = NODE(_minx,_maxy,_maxz)
_ntets(5) = NODE(_maxx,_miny,_minz)
_ntets(6) = NODE(_maxx,_miny,_maxz)
_ntets(7) = NODE(_maxx,_maxy,_minz)
_ntets(8) = NODE(_maxx,_maxy,_maxz)
*do,_i,1,8
  n,_nspr,nx(_ntets(_i))+_delta,ny(_ntets(_i)),nz(_ntets(_i))
  e,_ntets(_i),_nspr
  d,_nspr,all
  _nspr=_nspr+1
  n,_nspr,nx(_ntets(_i)),ny(_ntets(_i))+_delta,nz(_ntets(_i))
  e,_ntets(_i),_nspr
  d,_nspr,all
  _nspr=_nspr+1
  n,_nspr,nx(_ntets(_i)),ny(_ntets(_i)),nz(_ntets(_i))+_delta
  e,_ntets(_i),_nspr
  d,_nspr,all
  _nspr=_nspr+1
*enddo
*set,_ntets
nsel,all
esel,all
/com,*********** Construct Weak Springs, Prototype 12 ***********
*set,_delta,0.989460165342926
type,30
mat,42
real,42
r,42,1.40459689741037e-004
nsel,all
*get,_nspr,ndmx
_nspr=_nspr+1
esel,s,mat,,12
nsle,s,active
*get,_minx,node,0,mnloc,x
*get,_miny,node,0,mnloc,y
*get,_minz,node,0,mnloc,z
*get,_maxx,node,0,mxloc,x
*get,_maxy,node,0,mxloc,y
*get,_maxz,node,0,mxloc,z
*dim,_ntets,arra,8
_ntets(1) = NODE(_minx,_miny,_minz)
_ntets(2) = NODE(_minx,_miny,_maxz)
_ntets(3) = NODE(_minx,_maxy,_minz)
_ntets(4) = NODE(_minx,_maxy,_maxz)
_ntets(5) = NODE(_maxx,_miny,_minz)
_ntets(6) = NODE(_maxx,_miny,_maxz)
_ntets(7) = NODE(_maxx,_maxy,_minz)
_ntets(8) = NODE(_maxx,_maxy,_maxz)
*do,_i,1,8
  n,_nspr,nx(_ntets(_i))+_delta,ny(_ntets(_i)),nz(_ntets(_i))
  e,_ntets(_i),_nspr
  d,_nspr,all
  _nspr=_nspr+1
  n,_nspr,nx(_ntets(_i)),ny(_ntets(_i))+_delta,nz(_ntets(_i))
  e,_ntets(_i),_nspr
  d,_nspr,all
  _nspr=_nspr+1
  n,_nspr,nx(_ntets(_i)),ny(_ntets(_i)),nz(_ntets(_i))+_delta
  e,_ntets(_i),_nspr
  d,_nspr,all
  _nspr=_nspr+1
*enddo
*set,_ntets
nsel,all
esel,all
/com,*********** Construct Weak Springs, Prototype 13 ***********
*set,_delta,0.886041530913003
type,30
mat,43
real,43
r,43,1.3248832522835e-004
nsel,all
*get,_nspr,ndmx
_nspr=_nspr+1
esel,s,mat,,13
nsle,s,active
*get,_minx,node,0,mnloc,x
*get,_miny,node,0,mnloc,y
*get,_minz,node,0,mnloc,z
*get,_maxx,node,0,mxloc,x
*get,_maxy,node,0,mxloc,y
*get,_maxz,node,0,mxloc,z
*dim,_ntets,arra,8
_ntets(1) = NODE(_minx,_miny,_minz)
_ntets(2) = NODE(_minx,_miny,_maxz)
_ntets(3) = NODE(_minx,_maxy,_minz)
_ntets(4) = NODE(_minx,_maxy,_maxz)
_ntets(5) = NODE(_maxx,_miny,_minz)
_ntets(6) = NODE(_maxx,_miny,_maxz)
_ntets(7) = NODE(_maxx,_maxy,_minz)
_ntets(8) = NODE(_maxx,_maxy,_maxz)
*do,_i,1,8
  n,_nspr,nx(_ntets(_i))+_delta,ny(_ntets(_i)),nz(_ntets(_i))
  e,_ntets(_i),_nspr
  d,_nspr,all
  _nspr=_nspr+1
  n,_nspr,nx(_ntets(_i)),ny(_ntets(_i))+_delta,nz(_ntets(_i))
  e,_ntets(_i),_nspr
  d,_nspr,all
  _nspr=_nspr+1
  n,_nspr,nx(_ntets(_i)),ny(_ntets(_i)),nz(_ntets(_i))+_delta
  e,_ntets(_i),_nspr
  d,_nspr,all
  _nspr=_nspr+1
*enddo
*set,_ntets
nsel,all
esel,all
/com,*********** Construct Weak Springs, Prototype 14 ***********
*set,_delta,0.886042021383525
type,30
mat,44
real,44
r,44,1.32488325228451e-004
nsel,all
*get,_nspr,ndmx
_nspr=_nspr+1
esel,s,mat,,14
nsle,s,active
*get,_minx,node,0,mnloc,x
*get,_miny,node,0,mnloc,y
*get,_minz,node,0,mnloc,z
*get,_maxx,node,0,mxloc,x
*get,_maxy,node,0,mxloc,y
*get,_maxz,node,0,mxloc,z
*dim,_ntets,arra,8
_ntets(1) = NODE(_minx,_miny,_minz)
_ntets(2) = NODE(_minx,_miny,_maxz)
_ntets(3) = NODE(_minx,_maxy,_minz)
_ntets(4) = NODE(_minx,_maxy,_maxz)
_ntets(5) = NODE(_maxx,_miny,_minz)
_ntets(6) = NODE(_maxx,_miny,_maxz)
_ntets(7) = NODE(_maxx,_maxy,_minz)
_ntets(8) = NODE(_maxx,_maxy,_maxz)
*do,_i,1,8
  n,_nspr,nx(_ntets(_i))+_delta,ny(_ntets(_i)),nz(_ntets(_i))
  e,_ntets(_i),_nspr
  d,_nspr,all
  _nspr=_nspr+1
  n,_nspr,nx(_ntets(_i)),ny(_ntets(_i))+_delta,nz(_ntets(_i))
  e,_ntets(_i),_nspr
  d,_nspr,all
  _nspr=_nspr+1
  n,_nspr,nx(_ntets(_i)),ny(_ntets(_i)),nz(_ntets(_i))+_delta
  e,_ntets(_i),_nspr
  d,_nspr,all
  _nspr=_nspr+1
*enddo
*set,_ntets
nsel,all
esel,all
/com,*********** Construct Weak Springs, Prototype 15 ***********
*set,_delta,9.50011286794723
type,30
mat,45
real,45
r,45,1.3670228441071e-004
nsel,all
*get,_nspr,ndmx
_nspr=_nspr+1
esel,s,mat,,15
nsle,s,active
*get,_minx,node,0,mnloc,x
*get,_miny,node,0,mnloc,y
*get,_minz,node,0,mnloc,z
*get,_maxx,node,0,mxloc,x
*get,_maxy,node,0,mxloc,y
*get,_maxz,node,0,mxloc,z
*dim,_ntets,arra,8
_ntets(1) = NODE(_minx,_miny,_minz)
_ntets(2) = NODE(_minx,_miny,_maxz)
_ntets(3) = NODE(_minx,_maxy,_minz)
_ntets(4) = NODE(_minx,_maxy,_maxz)
_ntets(5) = NODE(_maxx,_miny,_minz)
_ntets(6) = NODE(_maxx,_miny,_maxz)
_ntets(7) = NODE(_maxx,_maxy,_minz)
_ntets(8) = NODE(_maxx,_maxy,_maxz)
*do,_i,1,8
  n,_nspr,nx(_ntets(_i))+_delta,ny(_ntets(_i)),nz(_ntets(_i))
  e,_ntets(_i),_nspr
  d,_nspr,all
  _nspr=_nspr+1
  n,_nspr,nx(_ntets(_i)),ny(_ntets(_i))+_delta,nz(_ntets(_i))
  e,_ntets(_i),_nspr
  d,_nspr,all
  _nspr=_nspr+1
  n,_nspr,nx(_ntets(_i)),ny(_ntets(_i)),nz(_ntets(_i))+_delta
  e,_ntets(_i),_nspr
  d,_nspr,all
  _nspr=_nspr+1
*enddo
*set,_ntets
nsel,all
esel,all
/com,*********** Construct Weak Springs, Prototype 16 ***********
*set,_delta,9.50011286748295
type,30
mat,46
real,46
r,46,1.3670228441063e-004
nsel,all
*get,_nspr,ndmx
_nspr=_nspr+1
esel,s,mat,,16
nsle,s,active
*get,_minx,node,0,mnloc,x
*get,_miny,node,0,mnloc,y
*get,_minz,node,0,mnloc,z
*get,_maxx,node,0,mxloc,x
*get,_maxy,node,0,mxloc,y
*get,_maxz,node,0,mxloc,z
*dim,_ntets,arra,8
_ntets(1) = NODE(_minx,_miny,_minz)
_ntets(2) = NODE(_minx,_miny,_maxz)
_ntets(3) = NODE(_minx,_maxy,_minz)
_ntets(4) = NODE(_minx,_maxy,_maxz)
_ntets(5) = NODE(_maxx,_miny,_minz)
_ntets(6) = NODE(_maxx,_miny,_maxz)
_ntets(7) = NODE(_maxx,_maxy,_minz)
_ntets(8) = NODE(_maxx,_maxy,_maxz)
*do,_i,1,8
  n,_nspr,nx(_ntets(_i))+_delta,ny(_ntets(_i)),nz(_ntets(_i))
  e,_ntets(_i),_nspr
  d,_nspr,all
  _nspr=_nspr+1
  n,_nspr,nx(_ntets(_i)),ny(_ntets(_i))+_delta,nz(_ntets(_i))
  e,_ntets(_i),_nspr
  d,_nspr,all
  _nspr=_nspr+1
  n,_nspr,nx(_ntets(_i)),ny(_ntets(_i)),nz(_ntets(_i))+_delta
  e,_ntets(_i),_nspr
  d,_nspr,all
  _nspr=_nspr+1
*enddo
*set,_ntets
nsel,all
esel,all
/com,*********** Construct Weak Springs, Prototype 17 ***********
*set,_delta,9.45386345639784
type,30
mat,47
real,47
r,47,1.36701319243402e-004
nsel,all
*get,_nspr,ndmx
_nspr=_nspr+1
esel,s,mat,,17
nsle,s,active
*get,_minx,node,0,mnloc,x
*get,_miny,node,0,mnloc,y
*get,_minz,node,0,mnloc,z
*get,_maxx,node,0,mxloc,x
*get,_maxy,node,0,mxloc,y
*get,_maxz,node,0,mxloc,z
*dim,_ntets,arra,8
_ntets(1) = NODE(_minx,_miny,_minz)
_ntets(2) = NODE(_minx,_miny,_maxz)
_ntets(3) = NODE(_minx,_maxy,_minz)
_ntets(4) = NODE(_minx,_maxy,_maxz)
_ntets(5) = NODE(_maxx,_miny,_minz)
_ntets(6) = NODE(_maxx,_miny,_maxz)
_ntets(7) = NODE(_maxx,_maxy,_minz)
_ntets(8) = NODE(_maxx,_maxy,_maxz)
*do,_i,1,8
  n,_nspr,nx(_ntets(_i))+_delta,ny(_ntets(_i)),nz(_ntets(_i))
  e,_ntets(_i),_nspr
  d,_nspr,all
  _nspr=_nspr+1
  n,_nspr,nx(_ntets(_i)),ny(_ntets(_i))+_delta,nz(_ntets(_i))
  e,_ntets(_i),_nspr
  d,_nspr,all
  _nspr=_nspr+1
  n,_nspr,nx(_ntets(_i)),ny(_ntets(_i)),nz(_ntets(_i))+_delta
  e,_ntets(_i),_nspr
  d,_nspr,all
  _nspr=_nspr+1
*enddo
*set,_ntets
nsel,all
esel,all
/com,*********** Construct Weak Springs, Prototype 18 ***********
*set,_delta,9.4538634568644
type,30
mat,48
real,48
r,48,1.36701319243549e-004
nsel,all
*get,_nspr,ndmx
_nspr=_nspr+1
esel,s,mat,,18
nsle,s,active
*get,_minx,node,0,mnloc,x
*get,_miny,node,0,mnloc,y
*get,_minz,node,0,mnloc,z
*get,_maxx,node,0,mxloc,x
*get,_maxy,node,0,mxloc,y
*get,_maxz,node,0,mxloc,z
*dim,_ntets,arra,8
_ntets(1) = NODE(_minx,_miny,_minz)
_ntets(2) = NODE(_minx,_miny,_maxz)
_ntets(3) = NODE(_minx,_maxy,_minz)
_ntets(4) = NODE(_minx,_maxy,_maxz)
_ntets(5) = NODE(_maxx,_miny,_minz)
_ntets(6) = NODE(_maxx,_miny,_maxz)
_ntets(7) = NODE(_maxx,_maxy,_minz)
_ntets(8) = NODE(_maxx,_maxy,_maxz)
*do,_i,1,8
  n,_nspr,nx(_ntets(_i))+_delta,ny(_ntets(_i)),nz(_ntets(_i))
  e,_ntets(_i),_nspr
  d,_nspr,all
  _nspr=_nspr+1
  n,_nspr,nx(_ntets(_i)),ny(_ntets(_i))+_delta,nz(_ntets(_i))
  e,_ntets(_i),_nspr
  d,_nspr,all
  _nspr=_nspr+1
  n,_nspr,nx(_ntets(_i)),ny(_ntets(_i)),nz(_ntets(_i))+_delta
  e,_ntets(_i),_nspr
  d,_nspr,all
  _nspr=_nspr+1
*enddo
*set,_ntets
nsel,all
esel,all
/com,*********** Construct Weak Springs, Prototype 19 ***********
*set,_delta,6.54074581818438e-002
type,30
mat,49
real,49
r,49,1.36900000000075e-004
nsel,all
*get,_nspr,ndmx
_nspr=_nspr+1
esel,s,mat,,19
nsle,s,active
*get,_minx,node,0,mnloc,x
*get,_miny,node,0,mnloc,y
*get,_minz,node,0,mnloc,z
*get,_maxx,node,0,mxloc,x
*get,_maxy,node,0,mxloc,y
*get,_maxz,node,0,mxloc,z
*dim,_ntets,arra,8
_ntets(1) = NODE(_minx,_miny,_minz)
_ntets(2) = NODE(_minx,_miny,_maxz)
_ntets(3) = NODE(_minx,_maxy,_minz)
_ntets(4) = NODE(_minx,_maxy,_maxz)
_ntets(5) = NODE(_maxx,_miny,_minz)
_ntets(6) = NODE(_maxx,_miny,_maxz)
_ntets(7) = NODE(_maxx,_maxy,_minz)
_ntets(8) = NODE(_maxx,_maxy,_maxz)
*do,_i,1,8
  n,_nspr,nx(_ntets(_i))+_delta,ny(_ntets(_i)),nz(_ntets(_i))
  e,_ntets(_i),_nspr
  d,_nspr,all
  _nspr=_nspr+1
  n,_nspr,nx(_ntets(_i)),ny(_ntets(_i))+_delta,nz(_ntets(_i))
  e,_ntets(_i),_nspr
  d,_nspr,all
  _nspr=_nspr+1
  n,_nspr,nx(_ntets(_i)),ny(_ntets(_i)),nz(_ntets(_i))+_delta
  e,_ntets(_i),_nspr
  d,_nspr,all
  _nspr=_nspr+1
*enddo
*set,_ntets
nsel,all
esel,all
/com,*********** Construct Weak Springs, Prototype 20 ***********
*set,_delta,6.54074581818438e-002
type,30
mat,50
real,50
r,50,1.36900000000073e-004
nsel,all
*get,_nspr,ndmx
_nspr=_nspr+1
esel,s,mat,,20
nsle,s,active
*get,_minx,node,0,mnloc,x
*get,_miny,node,0,mnloc,y
*get,_minz,node,0,mnloc,z
*get,_maxx,node,0,mxloc,x
*get,_maxy,node,0,mxloc,y
*get,_maxz,node,0,mxloc,z
*dim,_ntets,arra,8
_ntets(1) = NODE(_minx,_miny,_minz)
_ntets(2) = NODE(_minx,_miny,_maxz)
_ntets(3) = NODE(_minx,_maxy,_minz)
_ntets(4) = NODE(_minx,_maxy,_maxz)
_ntets(5) = NODE(_maxx,_miny,_minz)
_ntets(6) = NODE(_maxx,_miny,_maxz)
_ntets(7) = NODE(_maxx,_maxy,_minz)
_ntets(8) = NODE(_maxx,_maxy,_maxz)
*do,_i,1,8
  n,_nspr,nx(_ntets(_i))+_delta,ny(_ntets(_i)),nz(_ntets(_i))
  e,_ntets(_i),_nspr
  d,_nspr,all
  _nspr=_nspr+1
  n,_nspr,nx(_ntets(_i)),ny(_ntets(_i))+_delta,nz(_ntets(_i))
  e,_ntets(_i),_nspr
  d,_nspr,all
  _nspr=_nspr+1
  n,_nspr,nx(_ntets(_i)),ny(_ntets(_i)),nz(_ntets(_i))+_delta
  e,_ntets(_i),_nspr
  d,_nspr,all
  _nspr=_nspr+1
*enddo
*set,_ntets
nsel,all
esel,all
/com,*********** Construct Weak Springs, Prototype 21 ***********
*set,_delta,6.54069187032953e-002
type,30
mat,51
real,51
r,51,1.36899999999888e-004
nsel,all
*get,_nspr,ndmx
_nspr=_nspr+1
esel,s,mat,,21
nsle,s,active
*get,_minx,node,0,mnloc,x
*get,_miny,node,0,mnloc,y
*get,_minz,node,0,mnloc,z
*get,_maxx,node,0,mxloc,x
*get,_maxy,node,0,mxloc,y
*get,_maxz,node,0,mxloc,z
*dim,_ntets,arra,8
_ntets(1) = NODE(_minx,_miny,_minz)
_ntets(2) = NODE(_minx,_miny,_maxz)
_ntets(3) = NODE(_minx,_maxy,_minz)
_ntets(4) = NODE(_minx,_maxy,_maxz)
_ntets(5) = NODE(_maxx,_miny,_minz)
_ntets(6) = NODE(_maxx,_miny,_maxz)
_ntets(7) = NODE(_maxx,_maxy,_minz)
_ntets(8) = NODE(_maxx,_maxy,_maxz)
*do,_i,1,8
  n,_nspr,nx(_ntets(_i))+_delta,ny(_ntets(_i)),nz(_ntets(_i))
  e,_ntets(_i),_nspr
  d,_nspr,all
  _nspr=_nspr+1
  n,_nspr,nx(_ntets(_i)),ny(_ntets(_i))+_delta,nz(_ntets(_i))
  e,_ntets(_i),_nspr
  d,_nspr,all
  _nspr=_nspr+1
  n,_nspr,nx(_ntets(_i)),ny(_ntets(_i)),nz(_ntets(_i))+_delta
  e,_ntets(_i),_nspr
  d,_nspr,all
  _nspr=_nspr+1
*enddo
*set,_ntets
nsel,all
esel,all
/com,*********** Construct Weak Springs, Prototype 22 ***********
*set,_delta,6.54069861387049e-002
type,30
mat,52
real,52
r,52,1.36899999999999e-004
nsel,all
*get,_nspr,ndmx
_nspr=_nspr+1
esel,s,mat,,22
nsle,s,active
*get,_minx,node,0,mnloc,x
*get,_miny,node,0,mnloc,y
*get,_minz,node,0,mnloc,z
*get,_maxx,node,0,mxloc,x
*get,_maxy,node,0,mxloc,y
*get,_maxz,node,0,mxloc,z
*dim,_ntets,arra,8
_ntets(1) = NODE(_minx,_miny,_minz)
_ntets(2) = NODE(_minx,_miny,_maxz)
_ntets(3) = NODE(_minx,_maxy,_minz)
_ntets(4) = NODE(_minx,_maxy,_maxz)
_ntets(5) = NODE(_maxx,_miny,_minz)
_ntets(6) = NODE(_maxx,_miny,_maxz)
_ntets(7) = NODE(_maxx,_maxy,_minz)
_ntets(8) = NODE(_maxx,_maxy,_maxz)
*do,_i,1,8
  n,_nspr,nx(_ntets(_i))+_delta,ny(_ntets(_i)),nz(_ntets(_i))
  e,_ntets(_i),_nspr
  d,_nspr,all
  _nspr=_nspr+1
  n,_nspr,nx(_ntets(_i)),ny(_ntets(_i))+_delta,nz(_ntets(_i))
  e,_ntets(_i),_nspr
  d,_nspr,all
  _nspr=_nspr+1
  n,_nspr,nx(_ntets(_i)),ny(_ntets(_i)),nz(_ntets(_i))+_delta
  e,_ntets(_i),_nspr
  d,_nspr,all
  _nspr=_nspr+1
*enddo
*set,_ntets
nsel,all
esel,all
/gst,on,on
fini
*get,_numnode,node,0,count
*get,_numelem,elem,0,count
*get, _MAXELEMNUM, elem, 0, NUM, MAX
*get, _MAXNODENUM, node, 0, NUM, MAX
*get, _MAXELEMTYPE, etyp, 0, NUM, MAX
*get, _MAXREALCONST, real, 0, NUM, MAX
/go
/wb,load,end               !  done creating loads
/com,--- Number of total nodes = %_numnode%
/com,--- Number of contact elements = 20
/com,--- Number of spring elements = 528
/com,--- Number of bearing elements = 0
/com,--- Number of solid elements = 1958
/com,--- Number of total elements = %_numelem%
*get,_wallbsol,active,,time,wall
/com,****************************************************************************
/com,*************************    SOLUTION       ********************************
/com,****************************************************************************
/solu
antype,0                   ! static analysis
nlgeom,on                  ! Turn on Large Deformation Effects
solc,on,on                 ! Turn on solution control with ability to use contact time prediction
eqsl,sparse,,,,,1
cntr,print,1               ! print out contact info and also make no initial contact an error
nldiag,cont,iter           ! print out contact info each equilibrium iteration
resc,define,last           ! Turn on restart files due to future eigen analysis intent
/com,****************************************************
/com,******************* SOLVE FOR LS 1 ****************
esel,s,real,,27
sfe,all,1,pres,1,%_loadvari520x%
esel,s,real,,28
sfe,all,1,pres,1,%_loadvari520y%
esel,s,real,,29
sfe,all,1,pres,1,%_loadvari520z%
esel,all
/nopr
/gopr
autots,on                  ! Workbench Program Controlled automatic time stepping
nsub,1,10,1                ! due to presence of general nonlinear
time,1.
outres,erase
outres,all,none
outres,nsol,all
outres,rsol,all
outres,nload,all
outres,strs,all
outres,epel,all
outres,eppl,all
outres,misc,all,_AllContacts
outres,misc,all
stabilize,off                   ! Stabilization turned OFF by user
! *********** WB SOLVE COMMAND ***********
! check interactive state
*get,ANSINTER_,active,,int
*if,ANSINTER_,ne,0,then
/eof
*endif
solve
/com *************** Write FE CONNECTORS ********* 
CEWRITE,file,ce,,INTE
/com,****************************************************
/com,*************** FINISHED SOLVE FOR LS 1 *************
*set,_DS_PROGRESS          ! turn off progress updates to avoid virus scanning bug
*get,_wallasol,active,,time,wall
/post1
xmlo,ENCODING,ISO-8859-1
xmlo,parm
/xml,parm,xml
fini
/gopr
*get,_walldone,active,,time,wall
_preptime=(_wallbsol-_wallstrt)*3600
_solvtime=(_wallasol-_wallbsol)*3600
_posttime=(_walldone-_wallasol)*3600
_totaltim=(_walldone-_wallstrt)*3600
/wb,file,end               ! done with WB generated input
