/batch
/config,noeldb,1     ! force off writing results to database
*get,_wallstrt,active,,time,wall
! ANSYS input file written by Workbench version 15.0.7  Release
! File used for geometry attach: C:\Users\mosta\OneDrive\Documents\ANSYS\Freqdiv_nodamp\30_nodamp_files\dp0\SYS-5\DM\SYS-5.agdb
/title,30_nodamp--Modal -Damping off (D5)
*DIM,_wb_ProjectScratch_dir,string,248
_wb_ProjectScratch_dir(1) = 'C:\Users\mosta\OneDrive\Documents\ANSYS\Freqdiv_nodamp\30_nodamp_files\dp0\SYS-7\MECH\'
*DIM,_wb_SolverFiles_dir,string,248
_wb_SolverFiles_dir(1) = 'C:\Users\mosta\OneDrive\Documents\ANSYS\Freqdiv_nodamp\30_nodamp_files\dp0\SYS-7\MECH\'
*DIM,_wb_userfiles_dir,string,248
_wb_userfiles_dir(1) = 'C:\Users\mosta\OneDrive\Documents\ANSYS\Freqdiv_nodamp\30_nodamp_files\user_files\'
/com,--- Data in consistent MKS units.
/units,MKS
/nopr
/wb,file,start              !  signify a WB generated input file
/prep7
! Turn off shape checking because checks already performed inside WB mesher.
! See help system for more information.
SHPP,OFF,,NOWARN
/nolist
etcon,set             ! allow ANSYS to choose best KEYOP's for 180x elements
/com,*********** Nodes for the whole assembly ***********
nblock,3
(1i9,3e20.9e3)
        1    1.770000000E-005    1.830000000E-004    0.000000000E+000
        2    0.000000000E+000    1.830000000E-004    0.000000000E+000
        3    9.250000000E-007    1.830000000E-004    0.000000000E+000
        4    1.677500000E-005    1.830000000E-004    0.000000000E+000
        5    0.000000000E+000    0.000000000E+000    0.000000000E+000
        6    9.250000000E-007    0.000000000E+000    0.000000000E+000
        7    9.250000000E-007    9.150000000E-005    0.000000000E+000
        8    9.250000000E-007    9.242424242E-007    0.000000000E+000
        9    9.250000000E-007    1.848484848E-006    0.000000000E+000
       10    9.250000000E-007    2.772727273E-006    0.000000000E+000
       11    9.250000000E-007    3.696969697E-006    0.000000000E+000
       12    9.250000000E-007    4.621212121E-006    0.000000000E+000
       13    9.250000000E-007    5.545454545E-006    0.000000000E+000
       14    9.250000000E-007    6.469696970E-006    0.000000000E+000
       15    9.250000000E-007    7.393939394E-006    0.000000000E+000
       16    9.250000000E-007    8.318181818E-006    0.000000000E+000
       17    9.250000000E-007    9.242424242E-006    0.000000000E+000
       18    9.250000000E-007    1.016666667E-005    0.000000000E+000
       19    9.250000000E-007    1.109090909E-005    0.000000000E+000
       20    9.250000000E-007    1.201515152E-005    0.000000000E+000
! ... 4306 like lines cut
/wb,elem,start            !  set before creation of elements
/com,*********** Elements for Body 1 "Surface Body" ***********
et,1,281
eblock,19,solid,,27
(19i9)
        1        1        1        1        0        0        0        0        8        0        1        3     1494     1493        2     1633     4122     1630     1628
        1        1        1        1        0        0        0        0        8        0        2     1494     1495     1492     1493     4123     4121     4120     4122
        1        1        1        1        0        0        0        0        8        0        3     1495     1496     1491     1492     4125     4119     4118     4121
        1        1        1        1        0        0        0        0        8        0        4     1496     1497     1490     1491     4127     4117     4116     4119
        1        1        1        1        0        0        0        0        8        0        5     1497     1498     1489     1490     4129     4115     4114     4117
        1        1        1        1        0        0        0        0        8        0        6     1498     1499     1488     1489     4131     4113     4112     4115
        1        1        1        1        0        0        0        0        8        0        7     1499     1500     1487     1488     4133     4111     4110     4113
        1        1        1        1        0        0        0        0        8        0        8     1500     1501     1486     1487     4135     4109     4108     4111
        1        1        1        1        0        0        0        0        8        0        9     1501     1502     1485     1486     4137     4107     4106     4109
        1        1        1        1        0        0        0        0        8        0       10     1502     1503     1484     1485     4139     4105     4104     4107
        1        1        1        1        0        0        0        0        8        0       11     1503     1504     1483     1484     4141     4103     4102     4105
        1        1        1        1        0        0        0        0        8        0       12     1504     1505     1482     1483     4143     4101     4100     4103
        1        1        1        1        0        0        0        0        8        0       13     1505     1506     1481     1482     4145     4099     4098     4101
        1        1        1        1        0        0        0        0        8        0       14     1506     1507     1480     1481     4147     4097     4096     4099
        1        1        1        1        0        0        0        0        8        0       15     1507     1508     1479     1480     4149     4095     4094     4097
        1        1        1        1        0        0        0        0        8        0       16     1508     1509     1478     1479     4151     4093     4092     4095
        1        1        1        1        0        0        0        0        8        0       17     1509     1510     1477     1478     4153     4091     4090     4093
        1        1        1        1        0        0        0        0        8        0       18     1510     1511     1476     1477     4155     4089     4088     4091
        1        1        1        1        0        0        0        0        8        0       19     1511     1512     1475     1476     4157     4087     4086     4089
        1        1        1        1        0        0        0        0        8        0       20     1512     1513     1474     1475     4159     4085     4084     4087
! ... 8 like lines cut
!Material Id = {71095A63-8282-48D6-835D-7D500F96A80E}
/com,*********** Elements for Body 2 "Surface Body" ***********
et,2,281
eblock,19,solid,,99
(19i9)
        2        2        2        2        0        0        0        0        8        0       28      108      104      105      107     1934     1933     1936     1940
        2        2        2        2        0        0        0        0        8        0       29      108      109      103      104     1941     1931     1930     1934
        2        2        2        2        0        0        0        0        8        0       30        7      106      107      105     1642     1938     1936     1641
        2        2        2        2        0        0        0        0        8        0       31      103      109      110      102     1931     1942     1928     1927
        2        2        2        2        0        0        0        0        8        0       32      110      111      101      102     1943     1925     1924     1928
        2        2        2        2        0        0        0        0        8        0       33      111      112      100      101     1944     1922     1921     1925
        2        2        2        2        0        0        0        0        8        0       34      112      113       99      100     1945     1919     1918     1922
        2        2        2        2        0        0        0        0        8        0       35      113      114       98       99     1946     1916     1915     1919
        2        2        2        2        0        0        0        0        8        0       36      114      115       97       98     1947     1913     1912     1916
        2        2        2        2        0        0        0        0        8        0       37      115      116       96       97     1948     1910     1909     1913
        2        2        2        2        0        0        0        0        8        0       38      116      117       95       96     1949     1907     1906     1910
        2        2        2        2        0        0        0        0        8        0       39      117      118       94       95     1950     1904     1903     1907
        2        2        2        2        0        0        0        0        8        0       40      118      119       93       94     1951     1901     1900     1904
        2        2        2        2        0        0        0        0        8        0       41      119      120       92       93     1952     1898     1897     1901
        2        2        2        2        0        0        0        0        8        0       42      120      121       91       92     1953     1895     1894     1898
        2        2        2        2        0        0        0        0        8        0       43      121      122       90       91     1954     1892     1891     1895
        2        2        2        2        0        0        0        0        8        0       44      122      123       89       90     1955     1889     1888     1892
        2        2        2        2        0        0        0        0        8        0       45      123      124       88       89     1956     1886     1885     1889
        2        2        2        2        0        0        0        0        8        0       46      124      125       87       88     1957     1883     1882     1886
        2        2        2        2        0        0        0        0        8        0       47      125      126       86       87     1958     1880     1879     1883
! ... 80 like lines cut
!Material Id = {DEDD9042-731F-4FCC-9CCB-B6D8D6935C3C}
/com,*********** Elements for Body 3 "Surface Body" ***********
et,3,281
eblock,19,solid,,99
(19i9)
        3        3        3        3        0        0        0        0        8        0      127      273      332      333      272     2242     2359     2239     2238
        3        3        3        3        0        0        0        0        8        0      128      273      274      331      332     2241     2245     2358     2242
        3        3        3        3        0        0        0        0        8        0      129      272      333      334      271     2239     2360     2236     2235
        3        3        3        3        0        0        0        0        8        0      130      331      274      275      330     2245     2244     2248     2357
        3        3        3        3        0        0        0        0        8        0      131      271      334      335      270     2236     2361     2233     2232
        3        3        3        3        0        0        0        0        8        0      132      330      275      276      329     2248     2247     2251     2356
        3        3        3        3        0        0        0        0        8        0      133      270      335      336      269     2233     2362     2230     2229
        3        3        3        3        0        0        0        0        8        0      134      329      276      277      328     2251     2250     2254     2355
        3        3        3        3        0        0        0        0        8        0      135      269      336      337      268     2230     2363     2227     2226
        3        3        3        3        0        0        0        0        8        0      136      328      277      278      327     2254     2253     2257     2354
        3        3        3        3        0        0        0        0        8        0      137      268      337      338      267     2227     2364     2224     2223
        3        3        3        3        0        0        0        0        8        0      138      327      278      279      326     2257     2256     2260     2353
        3        3        3        3        0        0        0        0        8        0      139      267      338      339      266     2224     2365     2221     2220
        3        3        3        3        0        0        0        0        8        0      140      326      279      280      325     2260     2259     2263     2352
        3        3        3        3        0        0        0        0        8        0      141      266      339      340      265     2221     2366     2218     2217
        3        3        3        3        0        0        0        0        8        0      142      325      280      281      324     2263     2262     2266     2351
        3        3        3        3        0        0        0        0        8        0      143      265      340      341      264     2218     2367     2215     2214
        3        3        3        3        0        0        0        0        8        0      144      324      281      282      323     2266     2265     2269     2350
        3        3        3        3        0        0        0        0        8        0      145      264      341      342      263     2215     2368     2212     2211
        3        3        3        3        0        0        0        0        8        0      146      323      282      283      322     2269     2268     2272     2349
! ... 80 like lines cut
!Material Id = {B86F5CEC-A2F8-4D77-B96A-1F73C4755985}
/com,*********** Elements for Body 4 "Surface Body" ***********
et,4,281
eblock,19,solid,,99
(19i9)
        4        4        4        4        0        0        0        0        8        0      226      471      273      272      470     2243     2238     2240     2498
        4        4        4        4        0        0        0        0        8        0      227      471      472      274      273     2499     2246     2241     2243
        4        4        4        4        0        0        0        0        8        0      228      470      272      271      469     2240     2235     2237     2497
        4        4        4        4        0        0        0        0        8        0      229      274      472      473      275     2246     2500     2249     2244
        4        4        4        4        0        0        0        0        8        0      230      469      271      270      468     2237     2232     2234     2496
        4        4        4        4        0        0        0        0        8        0      231      275      473      474      276     2249     2501     2252     2247
        4        4        4        4        0        0        0        0        8        0      232      468      270      269      467     2234     2229     2231     2495
        4        4        4        4        0        0        0        0        8        0      233      276      474      475      277     2252     2502     2255     2250
        4        4        4        4        0        0        0        0        8        0      234      467      269      268      466     2231     2226     2228     2494
        4        4        4        4        0        0        0        0        8        0      235      277      475      476      278     2255     2503     2258     2253
        4        4        4        4        0        0        0        0        8        0      236      466      268      267      465     2228     2223     2225     2493
        4        4        4        4        0        0        0        0        8        0      237      278      476      477      279     2258     2504     2261     2256
        4        4        4        4        0        0        0        0        8        0      238      465      267      266      464     2225     2220     2222     2492
        4        4        4        4        0        0        0        0        8        0      239      279      477      478      280     2261     2505     2264     2259
        4        4        4        4        0        0        0        0        8        0      240      464      266      265      463     2222     2217     2219     2491
        4        4        4        4        0        0        0        0        8        0      241      280      478      479      281     2264     2506     2267     2262
        4        4        4        4        0        0        0        0        8        0      242      463      265      264      462     2219     2214     2216     2490
        4        4        4        4        0        0        0        0        8        0      243      281      479      480      282     2267     2507     2270     2265
        4        4        4        4        0        0        0        0        8        0      244      462      264      263      461     2216     2211     2213     2489
        4        4        4        4        0        0        0        0        8        0      245      282      480      481      283     2270     2508     2273     2268
! ... 80 like lines cut
!Material Id = {361A875B-0916-4966-B3A9-6C7A3AAFBA3E}
/com,*********** Elements for Body 5 "Surface Body" ***********
et,5,281
eblock,19,solid,,99
(19i9)
        5        5        5        5        0        0        0        0        8        0      325        9      503      504       10     1650     2530     1653     1648
        5        5        5        5        0        0        0        0        8        0      326        9        8      502      503     1645     1647     2529     1650
        5        5        5        5        0        0        0        0        8        0      327       10      504      505       11     1653     2531     1656     1651
        5        5        5        5        0        0        0        0        8        0      328      502        8        6      501     1647     1639     1640     2528
        5        5        5        5        0        0        0        0        8        0      329       11      505      506       12     1656     2532     1659     1654
        5        5        5        5        0        0        0        0        8        0      330       12      506      507       13     1659     2533     1662     1657
        5        5        5        5        0        0        0        0        8        0      331       13      507      508       14     1662     2534     1665     1660
        5        5        5        5        0        0        0        0        8        0      332       14      508      509       15     1665     2535     1668     1663
        5        5        5        5        0        0        0        0        8        0      333       15      509      510       16     1668     2536     1671     1666
        5        5        5        5        0        0        0        0        8        0      334       16      510      511       17     1671     2537     1674     1669
        5        5        5        5        0        0        0        0        8        0      335       17      511      512       18     1674     2538     1677     1672
        5        5        5        5        0        0        0        0        8        0      336       18      512      513       19     1677     2539     1680     1675
        5        5        5        5        0        0        0        0        8        0      337       19      513      514       20     1680     2540     1683     1678
        5        5        5        5        0        0        0        0        8        0      338       20      514      515       21     1683     2541     1686     1681
        5        5        5        5        0        0        0        0        8        0      339       21      515      516       22     1686     2542     1689     1684
        5        5        5        5        0        0        0        0        8        0      340       22      516      517       23     1689     2543     1692     1687
        5        5        5        5        0        0        0        0        8        0      341       23      517      518       24     1692     2544     1695     1690
        5        5        5        5        0        0        0        0        8        0      342       24      518      519       25     1695     2545     1698     1693
        5        5        5        5        0        0        0        0        8        0      343      519      520       26       25     2546     1701     1696     1698
        5        5        5        5        0        0        0        0        8        0      344      520      521       27       26     2547     1704     1699     1701
! ... 80 like lines cut
!Material Id = {387AFFC2-A522-4347-B5AB-6C634178746F}
/com,*********** Elements for Body 6 "Surface Body" ***********
et,6,281
eblock,19,solid,,144
(19i9)
        6        6        6        6        0        0        0        0        8        0      424      889      745      602      746     3060     2630     2631     3062
        6        6        6        6        0        0        0        0        8        0      425      889      888      744      745     3205     3058     3057     3060
        6        6        6        6        0        0        0        0        8        0      426      744      888      887      743     3058     3204     3055     3054
        6        6        6        6        0        0        0        0        8        0      427      743      887      886      742     3055     3203     3052     3051
        6        6        6        6        0        0        0        0        8        0      428      742      886      885      741     3052     3202     3049     3048
        6        6        6        6        0        0        0        0        8        0      429      741      885      884      740     3049     3201     3046     3045
        6        6        6        6        0        0        0        0        8        0      430      740      884      883      739     3046     3200     3043     3042
        6        6        6        6        0        0        0        0        8        0      431      739      883      882      738     3043     3199     3040     3039
        6        6        6        6        0        0        0        0        8        0      432      738      882      881      737     3040     3198     3037     3036
        6        6        6        6        0        0        0        0        8        0      433      737      881      880      736     3037     3197     3034     3033
        6        6        6        6        0        0        0        0        8        0      434      736      880      879      735     3034     3196     3031     3030
        6        6        6        6        0        0        0        0        8        0      435      735      879      878      734     3031     3195     3028     3027
        6        6        6        6        0        0        0        0        8        0      436      734      878      877      733     3028     3194     3025     3024
        6        6        6        6        0        0        0        0        8        0      437      733      877      876      732     3025     3193     3022     3021
        6        6        6        6        0        0        0        0        8        0      438      732      876      875      731     3022     3192     3019     3018
        6        6        6        6        0        0        0        0        8        0      439      731      875      874      730     3019     3191     3016     3015
        6        6        6        6        0        0        0        0        8        0      440      730      874      873      729     3016     3190     3013     3012
        6        6        6        6        0        0        0        0        8        0      441      729      873      872      728     3013     3189     3010     3009
        6        6        6        6        0        0        0        0        8        0      442      728      872      871      727     3010     3188     3007     3006
        6        6        6        6        0        0        0        0        8        0      443      727      871      870      726     3007     3187     3004     3003
! ... 125 like lines cut
!Material Id = {5340206C-C703-4552-BC97-21CFDB55D49B}
/com,*********** Elements for Body 7 "Surface Body" ***********
et,7,281
eblock,19,solid,,143
(19i9)
        7        7        7        7        0        0        0        0        8        0      568     1175     1032      890     1033     3632     3206     3207     3633
        7        7        7        7        0        0        0        0        8        0      569     1175     1174     1031     1032     3775     3630     3629     3632
        7        7        7        7        0        0        0        0        8        0      570     1031     1174     1173     1030     3630     3774     3627     3626
        7        7        7        7        0        0        0        0        8        0      571     1030     1173     1172     1029     3627     3773     3624     3623
        7        7        7        7        0        0        0        0        8        0      572     1172     1171     1028     1029     3772     3621     3620     3624
        7        7        7        7        0        0        0        0        8        0      573     1171     1170     1027     1028     3771     3618     3617     3621
        7        7        7        7        0        0        0        0        8        0      574     1170     1169     1026     1027     3770     3615     3614     3618
        7        7        7        7        0        0        0        0        8        0      575     1169     1168     1025     1026     3769     3612     3611     3615
        7        7        7        7        0        0        0        0        8        0      576     1168     1167     1024     1025     3768     3609     3608     3612
        7        7        7        7        0        0        0        0        8        0      577     1167     1166     1023     1024     3767     3606     3605     3609
        7        7        7        7        0        0        0        0        8        0      578     1166     1165     1022     1023     3766     3603     3602     3606
        7        7        7        7        0        0        0        0        8        0      579     1165     1164     1021     1022     3765     3600     3599     3603
        7        7        7        7        0        0        0        0        8        0      580     1164     1163     1020     1021     3764     3597     3596     3600
        7        7        7        7        0        0        0        0        8        0      581     1163     1162     1019     1020     3763     3594     3593     3597
        7        7        7        7        0        0        0        0        8        0      582     1162     1161     1018     1019     3762     3591     3590     3594
        7        7        7        7        0        0        0        0        8        0      583     1161     1160     1017     1018     3761     3588     3587     3591
        7        7        7        7        0        0        0        0        8        0      584     1160     1159     1016     1017     3760     3585     3584     3588
        7        7        7        7        0        0        0        0        8        0      585     1159     1158     1015     1016     3759     3582     3581     3585
        7        7        7        7        0        0        0        0        8        0      586     1158     1157     1014     1015     3758     3579     3578     3582
        7        7        7        7        0        0        0        0        8        0      587     1157     1156     1013     1014     3757     3576     3575     3579
! ... 124 like lines cut
!Material Id = {E47FF134-9EBA-4177-8F34-8754423F65D6}
/com,*********** Elements for Body 8 "Surface Body" ***********
et,8,281
eblock,19,solid,,143
(19i9)
        8        8        8        8        0        0        0        0        8        0      711     1024     1184     1183     1025     3610     3784     3613     3608
        8        8        8        8        0        0        0        0        8        0      712     1183     1182     1026     1025     3783     3616     3611     3613
        8        8        8        8        0        0        0        0        8        0      713     1023     1185     1184     1024     3607     3785     3610     3605
        8        8        8        8        0        0        0        0        8        0      714     1026     1182     1181     1027     3616     3782     3619     3614
        8        8        8        8        0        0        0        0        8        0      715     1022     1186     1185     1023     3604     3786     3607     3602
        8        8        8        8        0        0        0        0        8        0      716     1027     1181     1180     1028     3619     3781     3622     3617
        8        8        8        8        0        0        0        0        8        0      717     1021     1187     1186     1022     3601     3787     3604     3599
        8        8        8        8        0        0        0        0        8        0      718     1028     1180     1179     1029     3622     3780     3625     3620
        8        8        8        8        0        0        0        0        8        0      719     1020     1188     1187     1021     3598     3788     3601     3596
        8        8        8        8        0        0        0        0        8        0      720     1029     1179     1178     1030     3625     3779     3628     3623
        8        8        8        8        0        0        0        0        8        0      721     1019     1189     1188     1020     3595     3789     3598     3593
        8        8        8        8        0        0        0        0        8        0      722     1030     1178     1177     1031     3628     3778     3631     3626
        8        8        8        8        0        0        0        0        8        0      723     1018     1190     1189     1019     3592     3790     3595     3590
        8        8        8        8        0        0        0        0        8        0      724     1031     1177        1     1032     3631     1626     1625     3629
        8        8        8        8        0        0        0        0        8        0      725     1017     1191     1190     1018     3589     3791     3592     3587
        8        8        8        8        0        0        0        0        8        0      726     1032        1        4      890     1625     1624     1634     3206
        8        8        8        8        0        0        0        0        8        0      727     1016     1192     1191     1017     3586     3792     3589     3584
        8        8        8        8        0        0        0        0        8        0      728     1015     1193     1192     1016     3583     3793     3586     3581
        8        8        8        8        0        0        0        0        8        0      729     1015     1014     1194     1193     3578     3580     3794     3583
        8        8        8        8        0        0        0        0        8        0      730     1014     1013     1195     1194     3575     3577     3795     3580
! ... 124 like lines cut
!Material Id = {23F2F4EA-2204-4717-AAD1-AABEB3C1DBF9}
/com,*********** Elements for Body 9 "Surface Body" ***********
et,9,281
eblock,19,solid,,144
(19i9)
        9        9        9        9        0        0        0        0        8        0      854     1376      688      687     1377     2891     2886     2888     3976
        9        9        9        9        0        0        0        0        8        0      855     1376     1375      689      688     3975     2894     2889     2891
        9        9        9        9        0        0        0        0        8        0      856     1377      687      686     1378     2888     2883     2885     3977
        9        9        9        9        0        0        0        0        8        0      857      689     1375     1374      690     2894     3974     2897     2892
        9        9        9        9        0        0        0        0        8        0      858     1378      686      685     1379     2885     2880     2882     3978
        9        9        9        9        0        0        0        0        8        0      859      690     1374     1373      691     2897     3973     2900     2895
        9        9        9        9        0        0        0        0        8        0      860     1379      685      684     1380     2882     2877     2879     3979
        9        9        9        9        0        0        0        0        8        0      861      691     1373     1372      692     2900     3972     2903     2898
        9        9        9        9        0        0        0        0        8        0      862     1380      684      683     1381     2879     2874     2876     3980
        9        9        9        9        0        0        0        0        8        0      863      692     1372     1371      693     2903     3971     2906     2901
        9        9        9        9        0        0        0        0        8        0      864     1381      683      682     1382     2876     2871     2873     3981
        9        9        9        9        0        0        0        0        8        0      865      693     1371     1370      694     2906     3970     2909     2904
        9        9        9        9        0        0        0        0        8        0      866     1382      682      681     1383     2873     2868     2870     3982
        9        9        9        9        0        0        0        0        8        0      867      694     1370     1369      695     2909     3969     2912     2907
        9        9        9        9        0        0        0        0        8        0      868     1383      681      680     1384     2870     2865     2867     3983
        9        9        9        9        0        0        0        0        8        0      869      695     1369     1368      696     2912     3968     2915     2910
        9        9        9        9        0        0        0        0        8        0      870     1384      680      679     1385     2867     2862     2864     3984
        9        9        9        9        0        0        0        0        8        0      871      696     1368     1367      697     2915     3967     2918     2913
        9        9        9        9        0        0        0        0        8        0      872     1385      679      678     1386     2864     2859     2861     3985
        9        9        9        9        0        0        0        0        8        0      873      697     1367     1366      698     2918     3966     2921     2916
! ... 125 like lines cut
!Material Id = {790DCE91-840B-4D77-9F7D-AB9C2CF91DE8}
/com,*********** Elements for Body 10 "Surface Body" ***********
et,10,281
eblock,19,solid,,27
(19i9)
       10       10       10       10        0        0        0        0        8        0      998      402     1597     1494        3     2430     4124     1633     1632
       10       10       10       10        0        0        0        0        8        0      999     1597     1596     1495     1494     4300     4126     4123     4124
       10       10       10       10        0        0        0        0        8        0     1000     1596     1595     1496     1495     4299     4128     4125     4126
       10       10       10       10        0        0        0        0        8        0     1001     1595     1594     1497     1496     4298     4130     4127     4128
       10       10       10       10        0        0        0        0        8        0     1002     1594     1593     1498     1497     4297     4132     4129     4130
       10       10       10       10        0        0        0        0        8        0     1003     1593     1592     1499     1498     4296     4134     4131     4132
       10       10       10       10        0        0        0        0        8        0     1004     1592     1591     1500     1499     4295     4136     4133     4134
       10       10       10       10        0        0        0        0        8        0     1005     1591     1590     1501     1500     4294     4138     4135     4136
       10       10       10       10        0        0        0        0        8        0     1006     1590     1589     1502     1501     4293     4140     4137     4138
       10       10       10       10        0        0        0        0        8        0     1007     1589     1588     1503     1502     4292     4142     4139     4140
       10       10       10       10        0        0        0        0        8        0     1008     1588     1587     1504     1503     4291     4144     4141     4142
       10       10       10       10        0        0        0        0        8        0     1009     1587     1586     1505     1504     4290     4146     4143     4144
       10       10       10       10        0        0        0        0        8        0     1010     1586     1585     1506     1505     4289     4148     4145     4146
       10       10       10       10        0        0        0        0        8        0     1011     1585     1584     1507     1506     4288     4150     4147     4148
       10       10       10       10        0        0        0        0        8        0     1012     1584     1583     1508     1507     4287     4152     4149     4150
       10       10       10       10        0        0        0        0        8        0     1013     1583     1582     1509     1508     4286     4154     4151     4152
       10       10       10       10        0        0        0        0        8        0     1014     1582     1581     1510     1509     4285     4156     4153     4154
       10       10       10       10        0        0        0        0        8        0     1015     1581     1580     1511     1510     4284     4158     4155     4156
       10       10       10       10        0        0        0        0        8        0     1016     1580     1579     1512     1511     4283     4160     4157     4158
       10       10       10       10        0        0        0        0        8        0     1017     1579     1578     1513     1512     4282     4162     4159     4160
! ... 8 like lines cut
!Material Id = {FB58D3F4-7A4F-4477-882E-3995CA19400F}
/com,*********** Elements for Body 11 "Surface Body" ***********
et,11,281
eblock,19,solid,,27
(19i9)
       11       11       11       11        0        0        0        0        8        0     1025     1462     1598     1571     1463     4063     4275     4065     4061
       11       11       11       11        0        0        0        0        8        0     1026     1598     1599     1570     1571     4301     4274     4273     4275
       11       11       11       11        0        0        0        0        8        0     1027     1599     1600     1569     1570     4302     4272     4271     4274
       11       11       11       11        0        0        0        0        8        0     1028     1600     1601     1568     1569     4303     4270     4269     4272
       11       11       11       11        0        0        0        0        8        0     1029     1601     1602     1567     1568     4304     4268     4267     4270
       11       11       11       11        0        0        0        0        8        0     1030     1602     1603     1566     1567     4305     4266     4265     4268
       11       11       11       11        0        0        0        0        8        0     1031     1603     1604     1565     1566     4306     4264     4263     4266
       11       11       11       11        0        0        0        0        8        0     1032     1604     1605     1564     1565     4307     4262     4261     4264
       11       11       11       11        0        0        0        0        8        0     1033     1605     1606     1563     1564     4308     4260     4259     4262
       11       11       11       11        0        0        0        0        8        0     1034     1606     1607     1562     1563     4309     4258     4257     4260
       11       11       11       11        0        0        0        0        8        0     1035     1607     1608     1561     1562     4310     4256     4255     4258
       11       11       11       11        0        0        0        0        8        0     1036     1608     1609     1560     1561     4311     4254     4253     4256
       11       11       11       11        0        0        0        0        8        0     1037     1609     1610     1559     1560     4312     4252     4251     4254
       11       11       11       11        0        0        0        0        8        0     1038     1610     1611     1558     1559     4313     4250     4249     4252
       11       11       11       11        0        0        0        0        8        0     1039     1611     1612     1557     1558     4314     4248     4247     4250
       11       11       11       11        0        0        0        0        8        0     1040     1612     1613     1556     1557     4315     4246     4245     4248
       11       11       11       11        0        0        0        0        8        0     1041     1613     1614     1555     1556     4316     4244     4243     4246
       11       11       11       11        0        0        0        0        8        0     1042     1614     1615     1554     1555     4317     4242     4241     4244
       11       11       11       11        0        0        0        0        8        0     1043     1615     1616     1553     1554     4318     4240     4239     4242
       11       11       11       11        0        0        0        0        8        0     1044     1616     1617     1552     1553     4319     4238     4237     4240
! ... 8 like lines cut
!Material Id = {D0701958-3D3F-4F14-9D05-3DF786F0D9B5}
/com,*********** Elements for Body 12 "Surface Body" ***********
et,12,281
eblock,19,solid,,27
(19i9)
       12       12       12       12        0        0        0        0        8        0     1052     1466     1520     1571     1463     4070     4175     4065     4064
       12       12       12       12        0        0        0        0        8        0     1053     1520     1521     1570     1571     4174     4177     4273     4175
       12       12       12       12        0        0        0        0        8        0     1054     1521     1522     1569     1570     4176     4179     4271     4177
       12       12       12       12        0        0        0        0        8        0     1055     1522     1523     1568     1569     4178     4181     4269     4179
       12       12       12       12        0        0        0        0        8        0     1056     1523     1524     1567     1568     4180     4183     4267     4181
       12       12       12       12        0        0        0        0        8        0     1057     1524     1525     1566     1567     4182     4185     4265     4183
       12       12       12       12        0        0        0        0        8        0     1058     1525     1526     1565     1566     4184     4187     4263     4185
       12       12       12       12        0        0        0        0        8        0     1059     1526     1527     1564     1565     4186     4189     4261     4187
       12       12       12       12        0        0        0        0        8        0     1060     1527     1528     1563     1564     4188     4191     4259     4189
       12       12       12       12        0        0        0        0        8        0     1061     1528     1529     1562     1563     4190     4193     4257     4191
       12       12       12       12        0        0        0        0        8        0     1062     1529     1530     1561     1562     4192     4195     4255     4193
       12       12       12       12        0        0        0        0        8        0     1063     1530     1531     1560     1561     4194     4197     4253     4195
       12       12       12       12        0        0        0        0        8        0     1064     1531     1532     1559     1560     4196     4199     4251     4197
       12       12       12       12        0        0        0        0        8        0     1065     1532     1533     1558     1559     4198     4201     4249     4199
       12       12       12       12        0        0        0        0        8        0     1066     1533     1534     1557     1558     4200     4203     4247     4201
       12       12       12       12        0        0        0        0        8        0     1067     1534     1535     1556     1557     4202     4205     4245     4203
       12       12       12       12        0        0        0        0        8        0     1068     1535     1536     1555     1556     4204     4207     4243     4205
       12       12       12       12        0        0        0        0        8        0     1069     1536     1537     1554     1555     4206     4209     4241     4207
       12       12       12       12        0        0        0        0        8        0     1070     1537     1538     1553     1554     4208     4211     4239     4209
       12       12       12       12        0        0        0        0        8        0     1071     1538     1539     1552     1553     4210     4213     4237     4211
! ... 8 like lines cut
!Material Id = {68E9F213-EF5F-4607-9C9A-6E071B1B40E5}
/com,*********** Elements for Body 13 "Surface Body" ***********
et,13,281
eblock,19,solid,,1
(19i9)
       13       13       13       13        0        0        0        0        8        0     1079      890        4     1462     1463     1634     1635     4061     3208
-1
!Material Id = {954B2E0A-60F8-4F86-BBE5-551239B15B6F}
/com,*********** Elements for Body 14 "Surface Body" ***********
et,14,281
eblock,19,solid,,1
(19i9)
       14       14       14       14        0        0        0        0        8        0     1080      890     1463     1466     1033     3208     4064     3634     3207
-1
!Material Id = {51A8E232-D113-42F6-81B7-8EDB085804D3}
/wb,elem,end               !  done creating elements
/com,*********** Send User Defined Coordinate System(s) ***********
csys,0
toffst,273.15,  ! Temperature offset from absolute zero
/com,*********** Set Reference Temperature ***********
tref,22.
/wb,mat,start              !  starting to send materials
/com,*********** Send Materials ***********
MP,DENS,1,2329,	! kg m^-3
MP,ALPX,1,1.2e-05,	! C^-1
MP,C,1,434,	! J kg^-1 C^-1
MP,KXX,1,60.5,	! W m^-1 C^-1
MP,RSVX,1,1.7e-07,	! kg m^3 A^-2 s^-3
MP,EX,1,148000000000,	! Pa
MP,NUXY,1,0.3,
MP,MURX,1,10000,
MP,ALPD,1,0,

MP,DENS,2,2329,	! kg m^-3
MP,ALPX,2,1.2e-05,	! C^-1
MP,C,2,434,	! J kg^-1 C^-1
MP,KXX,2,60.5,	! W m^-1 C^-1
MP,RSVX,2,1.7e-07,	! kg m^3 A^-2 s^-3
MP,EX,2,148000000000,	! Pa
MP,NUXY,2,0.3,
MP,MURX,2,10000,
MP,ALPD,2,0,

MP,DENS,3,2329,	! kg m^-3
MP,ALPX,3,1.2e-05,	! C^-1
MP,C,3,434,	! J kg^-1 C^-1
MP,KXX,3,60.5,	! W m^-1 C^-1
MP,RSVX,3,1.7e-07,	! kg m^3 A^-2 s^-3
MP,EX,3,148000000000,	! Pa
MP,NUXY,3,0.3,
MP,MURX,3,10000,
MP,ALPD,3,0,

MP,DENS,4,2329,	! kg m^-3
MP,ALPX,4,1.2e-05,	! C^-1
MP,C,4,434,	! J kg^-1 C^-1
MP,KXX,4,60.5,	! W m^-1 C^-1
MP,RSVX,4,1.7e-07,	! kg m^3 A^-2 s^-3
MP,EX,4,148000000000,	! Pa
MP,NUXY,4,0.3,
MP,MURX,4,10000,
MP,ALPD,4,0,

MP,DENS,5,2329,	! kg m^-3
MP,ALPX,5,1.2e-05,	! C^-1
MP,C,5,434,	! J kg^-1 C^-1
MP,KXX,5,60.5,	! W m^-1 C^-1
MP,RSVX,5,1.7e-07,	! kg m^3 A^-2 s^-3
MP,EX,5,148000000000,	! Pa
MP,NUXY,5,0.3,
MP,MURX,5,10000,
MP,ALPD,5,0,

MP,DENS,6,2329,	! kg m^-3
MP,ALPX,6,1.2e-05,	! C^-1
MP,C,6,434,	! J kg^-1 C^-1
MP,KXX,6,60.5,	! W m^-1 C^-1
MP,RSVX,6,1.7e-07,	! kg m^3 A^-2 s^-3
MP,EX,6,148000000000,	! Pa
MP,NUXY,6,0.3,
MP,MURX,6,10000,
MP,ALPD,6,0,

MP,DENS,7,2329,	! kg m^-3
MP,ALPX,7,1.2e-05,	! C^-1
MP,C,7,434,	! J kg^-1 C^-1
MP,KXX,7,60.5,	! W m^-1 C^-1
MP,RSVX,7,1.7e-07,	! kg m^3 A^-2 s^-3
MP,EX,7,148000000000,	! Pa
MP,NUXY,7,0.3,
MP,MURX,7,10000,
MP,ALPD,7,0,

MP,DENS,8,2329,	! kg m^-3
MP,ALPX,8,1.2e-05,	! C^-1
MP,C,8,434,	! J kg^-1 C^-1
MP,KXX,8,60.5,	! W m^-1 C^-1
MP,RSVX,8,1.7e-07,	! kg m^3 A^-2 s^-3
MP,EX,8,148000000000,	! Pa
MP,NUXY,8,0.3,
MP,MURX,8,10000,
MP,ALPD,8,0,

MP,DENS,9,2329,	! kg m^-3
MP,ALPX,9,1.2e-05,	! C^-1
MP,C,9,434,	! J kg^-1 C^-1
MP,KXX,9,60.5,	! W m^-1 C^-1
MP,RSVX,9,1.7e-07,	! kg m^3 A^-2 s^-3
MP,EX,9,148000000000,	! Pa
MP,NUXY,9,0.3,
MP,MURX,9,10000,
MP,ALPD,9,0,

MP,DENS,10,2329,	! kg m^-3
MP,ALPX,10,1.2e-05,	! C^-1
MP,C,10,434,	! J kg^-1 C^-1
MP,KXX,10,60.5,	! W m^-1 C^-1
MP,RSVX,10,1.7e-07,	! kg m^3 A^-2 s^-3
MP,EX,10,148000000000,	! Pa
MP,NUXY,10,0.3,
MP,MURX,10,10000,
MP,ALPD,10,0,

MP,DENS,11,2329,	! kg m^-3
MP,ALPX,11,1.2e-05,	! C^-1
MP,C,11,434,	! J kg^-1 C^-1
MP,KXX,11,60.5,	! W m^-1 C^-1
MP,RSVX,11,1.7e-07,	! kg m^3 A^-2 s^-3
MP,EX,11,148000000000,	! Pa
MP,NUXY,11,0.3,
MP,MURX,11,10000,
MP,ALPD,11,0,

MP,DENS,12,2329,	! kg m^-3
MP,ALPX,12,1.2e-05,	! C^-1
MP,C,12,434,	! J kg^-1 C^-1
MP,KXX,12,60.5,	! W m^-1 C^-1
MP,RSVX,12,1.7e-07,	! kg m^3 A^-2 s^-3
MP,EX,12,148000000000,	! Pa
MP,NUXY,12,0.3,
MP,MURX,12,10000,
MP,ALPD,12,0,

MP,DENS,13,2329,	! kg m^-3
MP,ALPX,13,1.2e-05,	! C^-1
MP,C,13,434,	! J kg^-1 C^-1
MP,KXX,13,60.5,	! W m^-1 C^-1
MP,RSVX,13,1.7e-07,	! kg m^3 A^-2 s^-3
MP,EX,13,148000000000,	! Pa
MP,NUXY,13,0.3,
MP,MURX,13,10000,
MP,ALPD,13,0,

MP,DENS,14,2329,	! kg m^-3
MP,ALPX,14,1.2e-05,	! C^-1
MP,C,14,434,	! J kg^-1 C^-1
MP,KXX,14,60.5,	! W m^-1 C^-1
MP,RSVX,14,1.7e-07,	! kg m^3 A^-2 s^-3
MP,EX,14,148000000000,	! Pa
MP,NUXY,14,0.3,
MP,MURX,14,10000,
MP,ALPD,14,0,

/wb,mat,end                !  done sending materials
/com,*********** Send Sheet Properties ***********
sectype,1,shell
secdata,1.e-005
secoff,mid
sectype,2,shell
secdata,1.e-005
secoff,mid
sectype,3,shell
secdata,1.e-005
secoff,mid
sectype,4,shell
secdata,1.e-005
secoff,mid
sectype,5,shell
secdata,1.e-005
secoff,mid
sectype,6,shell
secdata,1.e-005
secoff,mid
sectype,7,shell
secdata,1.e-005
secoff,mid
sectype,8,shell
secdata,1.e-005
secoff,mid
sectype,9,shell
secdata,1.e-005
secoff,mid
sectype,10,shell
secdata,1.e-005
secoff,mid
sectype,11,shell
secdata,1.e-005
secoff,mid
sectype,12,shell
secdata,1.e-005
secoff,mid
sectype,13,shell
secdata,1.e-005
secoff,mid
sectype,14,shell
secdata,1.e-005
secoff,mid
!************************* Model Summary ********************
!Surface Body,	Structural Steel,	matid,	1
!Surface Body,	Structural Steel,	matid,	2
!Surface Body,	Structural Steel,	matid,	3
!Surface Body,	Structural Steel,	matid,	4
!Surface Body,	Structural Steel,	matid,	5
!Surface Body,	Structural Steel,	matid,	6
!Surface Body,	Structural Steel,	matid,	7
!Surface Body,	Structural Steel,	matid,	8
!Surface Body,	Structural Steel,	matid,	9
!Surface Body,	Structural Steel,	matid,	10
!Surface Body,	Structural Steel,	matid,	11
!Surface Body,	Structural Steel,	matid,	12
!Surface Body,	Structural Steel,	matid,	13
!Surface Body,	Structural Steel,	matid,	14
!************************* End Model Summary ********************
! get the diagonal of the bounding box. Needed later for other things
*get,_xmin,node,,mnloc,x
*get,_ymin,node,,mnloc,y
*get,_zmin,node,,mnloc,z
*get,_xmax,node,,mxloc,x
*get,_ymax,node,,mxloc,y
*get,_zmax,node,,mxloc,z
_ASMDIAG=(_xmax-_xmin)*(_xmax-_xmin)+(_ymax-_ymin)*(_ymax-_ymin)+(_zmax-_zmin)*(_zmax-_zmin)
_ASMDIAG=SQRT(_ASMDIAG)
/wb,contact,start          !  starting to send contact
/wb,contact,end            !  done creating contacts
/golist
/wb,load,start             !  starting to send loads
/com,*********** Fixed Supports ***********
CMBLOCK,_FIXEDSU,NODE,       15
(8i10)
         5         6       501       600       601      1318      1464      1465
      1467      1637      1640      2626      2628      4066      4067
cmsel,s,_FIXEDSU
d,all,all
nsel,all
nsel,all
/gst,on,on
fini
*get,_numnode,node,0,count
*get,_numelem,elem,0,count
*get, _MAXELEMNUM, elem, 0, NUM, MAX
*get, _MAXNODENUM, node, 0, NUM, MAX
*get, _MAXELEMTYPE, etyp, 0, NUM, MAX
*get, _MAXREALCONST, real, 0, NUM, MAX
/go
/wb,load,end               !  done creating loads
/com,--- Number of total nodes = %_numnode%
/com,--- Number of contact elements = 0
/com,--- Number of spring elements = 0
/com,--- Number of bearing elements = 0
/com,--- Number of solid elements = 1080
/com,--- Number of total elements = %_numelem%
*get,_wallbsol,active,,time,wall
/solu
antype,2                   ! modal analysis
modopt,lanb,15
outres,erase
outres,all,none
outres,nsol,all
mxpand                    ! default expand in case of complex solution
! *********** WB SOLVE COMMAND ***********
! check interactive state
*get,ANSINTER_,active,,int
*if,ANSINTER_,ne,0,then
/eof
*endif
solve
/com *************** Write FE CONNECTORS ********* 
CEWRITE,file,ce,,INTE
fini
*get,_wallasol,active,,time,wall
/post1
xmlo,ENCODING,ISO-8859-1
xmlo,parm
/xml,parm,xml
fini
/gopr
*get,_walldone,active,,time,wall
_preptime=(_wallbsol-_wallstrt)*3600
_solvtime=(_wallasol-_wallbsol)*3600
_posttime=(_walldone-_wallasol)*3600
_totaltim=(_walldone-_wallstrt)*3600
/wb,file,end               ! done with WB generated input
