/batch
/config,noeldb,1     ! force off writing results to database
*get,_wallstrt,active,,time,wall
! ANSYS input file written by Workbench version 15.0.7  Release
! File used for geometry attach: C:\Users\mosta\OneDrive\Documents\ANSYS\TEST1\BEAM_files\dp0\SYS\DM\SYS.agdb
/title,BEAM--Modal (A5)
*DIM,_wb_ProjectScratch_dir,string,248
_wb_ProjectScratch_dir(1) = 'C:\Users\mosta\OneDrive\Documents\ANSYS\TEST1\BEAM_files\dp0\SYS\MECH\'
*DIM,_wb_SolverFiles_dir,string,248
_wb_SolverFiles_dir(1) = 'C:\Users\mosta\OneDrive\Documents\ANSYS\TEST1\BEAM_files\dp0\SYS\MECH\'
*DIM,_wb_userfiles_dir,string,248
_wb_userfiles_dir(1) = 'C:\Users\mosta\OneDrive\Documents\ANSYS\TEST1\BEAM_files\user_files\'
/com,--- Data in consistent MKS units.
/units,MKS
/nopr
/wb,file,start              !  signify a WB generated input file
/prep7
! Turn off shape checking because checks already performed inside WB mesher.
! See help system for more information.
SHPP,OFF,,NOWARN
/nolist
etcon,set             ! allow ANSYS to choose best KEYOP's for 180x elements
/com,*********** Nodes for the whole assembly ***********
nblock,3
(1i9,3e20.9e3)
        1    2.000000000E-015    1.000000000E-001    0.000000000E+000
        2    2.000000000E-015    0.000000000E+000    0.000000000E+000
        3    2.000000000E-015    5.000000000E-002    0.000000000E+000
        4    1.000000000E+000    0.000000000E+000    0.000000000E+000
        5    5.000000000E-002    0.000000000E+000    0.000000000E+000
        6    1.000000000E-001    0.000000000E+000    0.000000000E+000
        7    1.500000000E-001    0.000000000E+000    0.000000000E+000
        8    2.000000000E-001    0.000000000E+000    0.000000000E+000
        9    2.500000000E-001    0.000000000E+000    0.000000000E+000
       10    3.000000000E-001    0.000000000E+000    0.000000000E+000
       11    3.500000000E-001    0.000000000E+000    0.000000000E+000
       12    4.000000000E-001    0.000000000E+000    0.000000000E+000
       13    4.500000000E-001    0.000000000E+000    0.000000000E+000
       14    5.000000000E-001    0.000000000E+000    0.000000000E+000
       15    5.500000000E-001    0.000000000E+000    0.000000000E+000
       16    6.000000000E-001    0.000000000E+000    0.000000000E+000
       17    6.500000000E-001    0.000000000E+000    0.000000000E+000
       18    7.000000000E-001    0.000000000E+000    0.000000000E+000
       19    7.500000000E-001    0.000000000E+000    0.000000000E+000
       20    8.000000000E-001    0.000000000E+000    0.000000000E+000
! ... 146 like lines cut
/wb,elem,start            !  set before creation of elements
/com,*********** Elements for Body 1 "Surface Body" ***********
et,1,281
eblock,19,solid,,40
(19i9)
        1        1        1        1        0        0        0        0        8        0        1       62       26       27       55      112      111      114      159
        1        1        1        1        0        0        0        0        8        0        2       27       28       54       55      113      116      158      114
        1        1        1        1        0        0        0        0        8        0        3       13       52       53       12       88      156       86       85
        1        1        1        1        0        0        0        0        8        0        4       54       28       29       51      116      115      118      155
        1        1        1        1        0        0        0        0        8        0        5       13       14       50       52       87       90      154       88
        1        1        1        1        0        0        0        0        8        0        6       51       29       30       49      118      117      120      153
        1        1        1        1        0        0        0        0        8        0        7       50       14       15       48       90       89       92      152
        1        1        1        1        0        0        0        0        8        0        8       49       30       31       47      120      119      122      151
        1        1        1        1        0        0        0        0        8        0        9       48       15       16       46       92       91       94      150
        1        1        1        1        0        0        0        0        8        0       10       47       31       32       45      122      121      124      149
        1        1        1        1        0        0        0        0        8        0       11       46       16       17       45       94       93       96      148
        1        1        1        1        0        0        0        0        8        0       12       45       32       33       46      124      123      126      148
        1        1        1        1        0        0        0        0        8        0       13       45       17       18       47       96       95       98      149
        1        1        1        1        0        0        0        0        8        0       14       46       33       34       48      126      125      128      150
        1        1        1        1        0        0        0        0        8        0       15       47       18       19       49       98       97      100      151
        1        1        1        1        0        0        0        0        8        0       16       48       34       35       50      128      127      130      152
        1        1        1        1        0        0        0        0        8        0       17       49       19       20       51      100       99      102      153
        1        1        1        1        0        0        0        0        8        0       18       50       35       36       52      130      129      132      154
        1        1        1        1        0        0        0        0        8        0       19       51       20       21       54      102      101      104      155
        1        1        1        1        0        0        0        0        8        0       20       52       36       37       53      132      131      134      156
! ... 21 like lines cut
!Material Id = {5B8D8299-80C8-4DE0-BB94-28F03B206BEE}
/wb,elem,end               !  done creating elements
/com,*********** Send User Defined Coordinate System(s) ***********
csys,0
toffst,273.15,  ! Temperature offset from absolute zero
/com,*********** Set Reference Temperature ***********
tref,22.
/wb,mat,start              !  starting to send materials
/com,*********** Send Materials ***********
MP,DENS,1,7850,	! kg m^-3
MP,ALPX,1,1.2e-05,	! C^-1
MP,C,1,434,	! J kg^-1 C^-1
MP,KXX,1,60.5,	! W m^-1 C^-1
MP,RSVX,1,1.7e-07,	! kg m^3 A^-2 s^-3
MP,EX,1,200000000000,	! Pa
MP,NUXY,1,0.3,
MP,MURX,1,10000,

/wb,mat,end                !  done sending materials
/com,*********** Send Sheet Properties ***********
sectype,1,shell
secdata,2.e-002
secoff,mid
!************************* Model Summary ********************
!Surface Body,	Structural Steel,	matid,	1
!************************* End Model Summary ********************
! get the diagonal of the bounding box. Needed later for other things
*get,_xmin,node,,mnloc,x
*get,_ymin,node,,mnloc,y
*get,_zmin,node,,mnloc,z
*get,_xmax,node,,mxloc,x
*get,_ymax,node,,mxloc,y
*get,_zmax,node,,mxloc,z
_ASMDIAG=(_xmax-_xmin)*(_xmax-_xmin)+(_ymax-_ymin)*(_ymax-_ymin)+(_zmax-_zmin)*(_zmax-_zmin)
_ASMDIAG=SQRT(_ASMDIAG)
/wb,contact,start          !  starting to send contact
/wb,contact,end            !  done creating contacts
/golist
/wb,load,start             !  starting to send loads
/com,*********** Fixed Supports ***********
CMBLOCK,_FIXEDSU,NODE,       10
(8i10)
         1         2         3         4        24        25        64        66
        70       108
cmsel,s,_FIXEDSU
d,all,all
nsel,all
nsel,all
/gst,on,on
fini
*get,_numnode,node,0,count
*get,_numelem,elem,0,count
*get, _MAXELEMNUM, elem, 0, NUM, MAX
*get, _MAXNODENUM, node, 0, NUM, MAX
*get, _MAXELEMTYPE, etyp, 0, NUM, MAX
*get, _MAXREALCONST, real, 0, NUM, MAX
/go
/wb,load,end               !  done creating loads
/com,--- Number of total nodes = %_numnode%
/com,--- Number of contact elements = 0
/com,--- Number of spring elements = 0
/com,--- Number of bearing elements = 0
/com,--- Number of solid elements = 40
/com,--- Number of total elements = %_numelem%
*get,_wallbsol,active,,time,wall
/solu
antype,2                   ! modal analysis
modopt,lanb,6
outres,erase
outres,all,none
outres,nsol,all
mxpand                    ! default expand in case of complex solution
! *********** WB SOLVE COMMAND ***********
! check interactive state
*get,ANSINTER_,active,,int
*if,ANSINTER_,ne,0,then
/eof
*endif
solve
/com *************** Write FE CONNECTORS ********* 
CEWRITE,file,ce,,INTE
fini
*get,_wallasol,active,,time,wall
/post1
xmlo,ENCODING,ISO-8859-1
xmlo,parm
/xml,parm,xml
fini
/gopr
*get,_walldone,active,,time,wall
_preptime=(_wallbsol-_wallstrt)*3600
_solvtime=(_wallasol-_wallbsol)*3600
_posttime=(_walldone-_wallasol)*3600
_totaltim=(_walldone-_wallstrt)*3600
/wb,file,end               ! done with WB generated input
