/batch
/config,noeldb,1     ! force off writing results to database
*get,_wallstrt,active,,time,wall
! ANSYS input file written by Workbench version 15.0.7  Release
! File used for geometry attach: C:\Users\mosta\OneDrive\Documents\ANSYS\Beam3D\Beam3D_files\dp0\SYS\DM\SYS.agdb
/title,Beam3D--Modal (A5)
*DIM,_wb_ProjectScratch_dir,string,248
_wb_ProjectScratch_dir(1) = 'C:\Users\mosta\OneDrive\Documents\ANSYS\Beam3D\Beam3D_files\dp0\SYS\MECH\'
*DIM,_wb_SolverFiles_dir,string,248
_wb_SolverFiles_dir(1) = 'C:\Users\mosta\OneDrive\Documents\ANSYS\Beam3D\Beam3D_files\dp0\SYS\MECH\'
*DIM,_wb_userfiles_dir,string,248
_wb_userfiles_dir(1) = 'C:\Users\mosta\OneDrive\Documents\ANSYS\Beam3D\Beam3D_files\user_files\'
/com,--- Data in consistent uMKS units.
/units,uMKS
/nopr
/wb,file,start              !  signify a WB generated input file
/prep7
! Turn off shape checking because checks already performed inside WB mesher.
! See help system for more information.
SHPP,OFF,,NOWARN
ncnv,1,1e9             ! uMKS system, Increase DOF limit to 1e9
/nolist
etcon,set             ! allow ANSYS to choose best KEYOP's for 180x elements
/com,*********** Nodes for the whole assembly ***********
nblock,3
(1i9,3e20.9e3)
        1    1.000000000E+006    5.000000000E+004    1.000000000E+004
        2    1.000000000E+006    0.000000000E+000    0.000000000E+000
        3    1.000000000E+006    2.500000000E+004    1.000000000E+004
        4    1.000000000E+006    0.000000000E+000    1.000000000E+004
        5    1.000000000E+006    1.000000000E+005    0.000000000E+000
        6    1.000000000E+006    1.000000000E+005    1.000000000E+004
        7    1.000000000E+006    7.500000000E+004    1.000000000E+004
        8    1.000000000E+006    7.500000000E+004    0.000000000E+000
        9    1.000000000E+006    5.000000000E+004    0.000000000E+000
       10    1.000000000E+006    2.500000000E+004    0.000000000E+000
       11    2.000000000E-009    1.000000000E+005    0.000000000E+000
       12    2.000000000E-009    1.000000000E+005    1.000000000E+004
       13    2.000000000E-009    7.500000000E+004    0.000000000E+000
       14    2.000000000E-009    7.500000000E+004    1.000000000E+004
       15    2.000000000E-009    5.000000000E+004    0.000000000E+000
       16    2.000000000E-009    5.000000000E+004    1.000000000E+004
       17    2.000000000E-009    0.000000000E+000    0.000000000E+000
       18    2.000000000E-009    2.500000000E+004    0.000000000E+000
       19    2.000000000E-009    0.000000000E+000    1.000000000E+004
       20    2.000000000E-009    2.500000000E+004    1.000000000E+004
! ... 1324 like lines cut
/wb,elem,start            !  set before creation of elements
/com,*********** Elements for Body 1 "Solid" ***********
et,1,186
keyo,1,2,1          ! set full integration on SOLID186
eblock,19,solid,,160
(19i9)
        1        1        1        1        0        0        0        0       20        0        1       32      127       64       65      257      363      299      298
      509      627      626      507     1085     1187     1185     1083      510      831      629      632
        1        1        1        1        0        0        0        0       20        0        2       32       65       66       33      257      298      297      258
      507      630      512      506     1083     1184     1086     1082      510      632      635      514
        1        1        1        1        0        0        0        0       20        0        3       32      106      107      127      257      336      335      363
      508      766      770      509     1084     1250     1251     1085      510      768      772      831
        1        1        1        1        0        0        0        0       20        0        4       32       33      105      106      257      258      337      336
      506      513      763      508     1082     1087     1253     1084      510      514      765      768
        1        1        1        1        0        0        0        0       20        0        5       33       66       67       34      258      297      296      362
      512      633      516      511     1086     1182     1183     1088      514      635      638      518
        1        1        1        1        0        0        0        0       20        0        6       33       34      104      105      258      362      338      337
      511      517      760      513     1088     1258     1255     1087      514      518      762      765
        1        1        1        1        0        0        0        0       20        0        7       34       67       68       35      362      296      295      259
      516      636      520      515     1183     1181     1090     1092      518      638      641      522
        1        1        1        1        0        0        0        0       20        0        8       34       35      103      104      362      259      339      338
      515      521      757      517     1092     1091     1257     1258      518      522      759      762
        1        1        1        1        0        0        0        0       20        0        9       35       68       69       36      259      295      294      260
      520      639      524      519     1090     1180     1093     1089      522      641      644      526
        1        1        1        1        0        0        0        0       20        0       10       35       36      102      103      259      260      340      339
      519      525      754      521     1089     1094     1260     1091      522      526      756      759
! ... 301 like lines cut
!Material Id = {EDE45918-6775-497C-A83E-D4D1E3F2C5F5}
/wb,elem,end               !  done creating elements
/com,*********** Send User Defined Coordinate System(s) ***********
csys,0
toffst,273.15,  ! Temperature offset from absolute zero
/com,*********** Set Reference Temperature ***********
tref,22.
/wb,mat,start              !  starting to send materials
/com,*********** Send Materials ***********
MP,DENS,1,7.85e-15,	! kg um^-3
MP,ALPX,1,1.2e-05,	! C^-1
MP,C,1,434000000000000,	! pJ kg^-1 C^-1
MP,KXX,1,60500000,	! pW um^-1 C^-1
MP,RSVX,1,1.7e-13,	! Tohm um
MP,EX,1,200000,	! MPa
MP,NUXY,1,0.3,
MP,MURX,1,10000,

/wb,mat,end                !  done sending materials
!************************* Model Summary ********************
!Solid,	Structural Steel,	matid,	1
!************************* End Model Summary ********************
! get the diagonal of the bounding box. Needed later for other things
*get,_xmin,node,,mnloc,x
*get,_ymin,node,,mnloc,y
*get,_zmin,node,,mnloc,z
*get,_xmax,node,,mxloc,x
*get,_ymax,node,,mxloc,y
*get,_zmax,node,,mxloc,z
_ASMDIAG=(_xmax-_xmin)*(_xmax-_xmin)+(_ymax-_ymin)*(_ymax-_ymin)+(_zmax-_zmin)*(_zmax-_zmin)
_ASMDIAG=SQRT(_ASMDIAG)
/wb,contact,start          !  starting to send contact
/wb,contact,end            !  done creating contacts
/golist
/wb,load,start             !  starting to send loads
/com,*********** Fixed Supports ***********
CMBLOCK,_FIXEDSU,NODE,       46
(8i10)
         1         2         3         4         5         6         7         8
         9        10        11        12        13        14        15        16
        17        18        19        20       411       412       413       415
       416       418       419       422       423       425       427       429
       431       434       435       437       439       440       442       444
       445       447       449       450       452       454
cmsel,s,_FIXEDSU
d,all,all
nsel,all
nsel,all
/gst,on,on
fini
*get,_numnode,node,0,count
*get,_numelem,elem,0,count
*get, _MAXELEMNUM, elem, 0, NUM, MAX
*get, _MAXNODENUM, node, 0, NUM, MAX
*get, _MAXELEMTYPE, etyp, 0, NUM, MAX
*get, _MAXREALCONST, real, 0, NUM, MAX
/go
/wb,load,end               !  done creating loads
/com,--- Number of total nodes = %_numnode%
/com,--- Number of contact elements = 0
/com,--- Number of spring elements = 0
/com,--- Number of bearing elements = 0
/com,--- Number of solid elements = 160
/com,--- Number of total elements = %_numelem%
*get,_wallbsol,active,,time,wall
/solu
antype,2                   ! modal analysis
modopt,lanb,6
outres,erase
outres,all,none
outres,nsol,all
mxpand                    ! default expand in case of complex solution
! *********** WB SOLVE COMMAND ***********
! check interactive state
*get,ANSINTER_,active,,int
*if,ANSINTER_,ne,0,then
/eof
*endif
solve
/com *************** Write FE CONNECTORS ********* 
CEWRITE,file,ce,,INTE
fini
*get,_wallasol,active,,time,wall
/post1
xmlo,ENCODING,ISO-8859-1
xmlo,parm
/xml,parm,xml
fini
/gopr
*get,_walldone,active,,time,wall
_preptime=(_wallbsol-_wallstrt)*3600
_solvtime=(_wallasol-_wallbsol)*3600
_posttime=(_walldone-_wallasol)*3600
_totaltim=(_walldone-_wallstrt)*3600
/wb,file,end               ! done with WB generated input
