/batch
/config,noeldb,1     ! force off writing results to database
*get,_wallstrt,active,,time,wall
! ANSYS input file written by Workbench version 15.0.7  Release
! File used for geometry attach: C:\Users\mosta\OneDrive\Documents\ANSYS\FreqDivFull_50um\f50_files\dp0\SYS-5\DM\SYS-5.agdb
/title,f50--Static Structural (A5)
*DIM,_wb_ProjectScratch_dir,string,248
_wb_ProjectScratch_dir(1) = 'C:\Users\mosta\OneDrive\Documents\ANSYS\FreqDivFull_50um\f50_files\dp0\SYS-5\MECH\'
*DIM,_wb_SolverFiles_dir,string,248
_wb_SolverFiles_dir(1) = 'C:\Users\mosta\OneDrive\Documents\ANSYS\FreqDivFull_50um\f50_files\dp0\SYS-5\MECH\'
*DIM,_wb_userfiles_dir,string,248
_wb_userfiles_dir(1) = 'C:\Users\mosta\OneDrive\Documents\ANSYS\FreqDivFull_50um\f50_files\user_files\'
/com,--- Data in consistent MKS units.
/units,MKS
/nopr
/wb,file,start              !  signify a WB generated input file
/prep7
! Turn off shape checking because checks already performed inside WB mesher.
! See help system for more information.
SHPP,OFF,,NOWARN
/nolist
etcon,set             ! allow ANSYS to choose best KEYOP's for 180x elements
/com,*********** Nodes for the whole assembly ***********
nblock,3
(1i9,3e20.9e3)
        1    1.770000000E-005    1.830000000E-004    0.000000000E+000
        2    0.000000000E+000    1.830000000E-004    0.000000000E+000
        3    9.250000000E-007    1.830000000E-004    0.000000000E+000
        4    1.677500000E-005    1.830000000E-004    0.000000000E+000
        5    0.000000000E+000    0.000000000E+000    0.000000000E+000
        6    9.250000000E-007    0.000000000E+000    0.000000000E+000
        7    9.250000000E-007    9.150000000E-005    0.000000000E+000
        8    9.250000000E-007    9.242424242E-007    0.000000000E+000
        9    9.250000000E-007    1.848484848E-006    0.000000000E+000
       10    9.250000000E-007    2.772727273E-006    0.000000000E+000
       11    9.250000000E-007    3.696969697E-006    0.000000000E+000
       12    9.250000000E-007    4.621212121E-006    0.000000000E+000
       13    9.250000000E-007    5.545454545E-006    0.000000000E+000
       14    9.250000000E-007    6.469696970E-006    0.000000000E+000
       15    9.250000000E-007    7.393939394E-006    0.000000000E+000
       16    9.250000000E-007    8.318181818E-006    0.000000000E+000
       17    9.250000000E-007    9.242424242E-006    0.000000000E+000
       18    9.250000000E-007    1.016666667E-005    0.000000000E+000
       19    9.250000000E-007    1.109090909E-005    0.000000000E+000
       20    9.250000000E-007    1.201515152E-005    0.000000000E+000
! ... 7818 like lines cut
/wb,elem,start            !  set before creation of elements
/com,*********** Elements for Body 1 "Surface Body" ***********
et,1,183
keyo,1,3,3
eblock,19,solid,,27
(19i9)
        1        1        1        1        0        0        0        0        8        0        1        3     2837     2836        2     2950     7711     2947     2945
        1        1        1        1        0        0        0        0        8        0        2     2837     2838     2835     2836     7712     7710     7709     7711
        1        1        1        1        0        0        0        0        8        0        3     2838     2839     2834     2835     7714     7708     7707     7710
        1        1        1        1        0        0        0        0        8        0        4     2839     2840     2833     2834     7716     7706     7705     7708
        1        1        1        1        0        0        0        0        8        0        5     2840     2841     2832     2833     7718     7704     7703     7706
        1        1        1        1        0        0        0        0        8        0        6     2841     2842     2831     2832     7720     7702     7701     7704
        1        1        1        1        0        0        0        0        8        0        7     2842     2843     2830     2831     7722     7700     7699     7702
        1        1        1        1        0        0        0        0        8        0        8     2843     2844     2829     2830     7724     7698     7697     7700
        1        1        1        1        0        0        0        0        8        0        9     2844     2845     2828     2829     7726     7696     7695     7698
        1        1        1        1        0        0        0        0        8        0       10     2845     2846     2827     2828     7728     7694     7693     7696
        1        1        1        1        0        0        0        0        8        0       11     2846     2847     2826     2827     7730     7692     7691     7694
        1        1        1        1        0        0        0        0        8        0       12     2847     2848     2825     2826     7732     7690     7689     7692
        1        1        1        1        0        0        0        0        8        0       13     2848     2849     2824     2825     7734     7688     7687     7690
        1        1        1        1        0        0        0        0        8        0       14     2849     2850     2823     2824     7736     7686     7685     7688
        1        1        1        1        0        0        0        0        8        0       15     2850     2851     2822     2823     7738     7684     7683     7686
        1        1        1        1        0        0        0        0        8        0       16     2851     2852     2821     2822     7740     7682     7681     7684
        1        1        1        1        0        0        0        0        8        0       17     2852     2853     2820     2821     7742     7680     7679     7682
        1        1        1        1        0        0        0        0        8        0       18     2853     2854     2819     2820     7744     7678     7677     7680
        1        1        1        1        0        0        0        0        8        0       19     2854     2855     2818     2819     7746     7676     7675     7678
        1        1        1        1        0        0        0        0        8        0       20     2855     2856     2817     2818     7748     7674     7673     7676
! ... 8 like lines cut
!Material Id = {733C352D-DB71-424A-A8C8-37B9121F59E5}
/com,*********** Elements for Body 2 "Surface Body" ***********
et,2,183
keyo,2,3,3
eblock,19,solid,,99
(19i9)
        2        2        2        2        0        0        0        0        8        0       28      139       73       74      138     3158     3157     3161     3288
        2        2        2        2        0        0        0        0        8        0       29      139      140       72       73     3289     3155     3154     3158
        2        2        2        2        0        0        0        0        8        0       30      138       74       75      137     3161     3160     3164     3287
        2        2        2        2        0        0        0        0        8        0       31       72      140      141       71     3155     3290     3152     3151
        2        2        2        2        0        0        0        0        8        0       32      137       75       76      136     3164     3163     3167     3286
        2        2        2        2        0        0        0        0        8        0       33       71      141      142       70     3152     3291     3149     3148
        2        2        2        2        0        0        0        0        8        0       34       77      135      136       76     3170     3285     3167     3166
        2        2        2        2        0        0        0        0        8        0       35       70      142      143       69     3149     3292     3146     3145
        2        2        2        2        0        0        0        0        8        0       36      135       77       78      134     3170     3169     3173     3284
        2        2        2        2        0        0        0        0        8        0       37       69      143      144       68     3146     3293     3143     3142
        2        2        2        2        0        0        0        0        8        0       38      134       78       79      133     3173     3172     3176     3283
        2        2        2        2        0        0        0        0        8        0       39       68      144      145       67     3143     3294     3140     3139
        2        2        2        2        0        0        0        0        8        0       40      133       79       80      132     3176     3175     3179     3282
        2        2        2        2        0        0        0        0        8        0       41       67      145      146       66     3140     3295     3137     3136
        2        2        2        2        0        0        0        0        8        0       42      132       80       81      131     3179     3178     3182     3281
        2        2        2        2        0        0        0        0        8        0       43       66      146      147       65     3137     3296     3134     3133
        2        2        2        2        0        0        0        0        8        0       44      131       81       82      130     3182     3181     3185     3280
        2        2        2        2        0        0        0        0        8        0       45       65      147      148       64     3134     3297     3131     3130
        2        2        2        2        0        0        0        0        8        0       46      130       82       83      129     3185     3184     3188     3279
        2        2        2        2        0        0        0        0        8        0       47       64      148      149       63     3131     3298     3128     3127
! ... 80 like lines cut
!Material Id = {910DA6C3-344D-4FEB-BF72-8CDBDBBF2927}
/com,*********** Elements for Body 3 "Surface Body" ***********
et,3,183
keyo,3,3,3
eblock,19,solid,,99
(19i9)
        3        3        3        3        0        0        0        0        8        0      127      273      332      333      272     3559     3676     3556     3555
        3        3        3        3        0        0        0        0        8        0      128      273      274      331      332     3558     3562     3675     3559
        3        3        3        3        0        0        0        0        8        0      129      272      333      334      271     3556     3677     3553     3552
        3        3        3        3        0        0        0        0        8        0      130      331      274      275      330     3562     3561     3565     3674
        3        3        3        3        0        0        0        0        8        0      131      271      334      335      270     3553     3678     3550     3549
        3        3        3        3        0        0        0        0        8        0      132      330      275      276      329     3565     3564     3568     3673
        3        3        3        3        0        0        0        0        8        0      133      270      335      336      269     3550     3679     3547     3546
        3        3        3        3        0        0        0        0        8        0      134      329      276      277      328     3568     3567     3571     3672
        3        3        3        3        0        0        0        0        8        0      135      269      336      337      268     3547     3680     3544     3543
        3        3        3        3        0        0        0        0        8        0      136      328      277      278      327     3571     3570     3574     3671
        3        3        3        3        0        0        0        0        8        0      137      268      337      338      267     3544     3681     3541     3540
        3        3        3        3        0        0        0        0        8        0      138      327      278      279      326     3574     3573     3577     3670
        3        3        3        3        0        0        0        0        8        0      139      267      338      339      266     3541     3682     3538     3537
        3        3        3        3        0        0        0        0        8        0      140      326      279      280      325     3577     3576     3580     3669
        3        3        3        3        0        0        0        0        8        0      141      266      339      340      265     3538     3683     3535     3534
        3        3        3        3        0        0        0        0        8        0      142      325      280      281      324     3580     3579     3583     3668
        3        3        3        3        0        0        0        0        8        0      143      265      340      341      264     3535     3684     3532     3531
        3        3        3        3        0        0        0        0        8        0      144      324      281      282      323     3583     3582     3586     3667
        3        3        3        3        0        0        0        0        8        0      145      264      341      342      263     3532     3685     3529     3528
        3        3        3        3        0        0        0        0        8        0      146      323      282      283      322     3586     3585     3589     3666
! ... 80 like lines cut
!Material Id = {4C39CBD9-AB37-4BC6-9A9B-5E50B16523AB}
/com,*********** Elements for Body 4 "Surface Body" ***********
et,4,183
keyo,4,3,3
eblock,19,solid,,99
(19i9)
        4        4        4        4        0        0        0        0        8        0      226      471      273      272      470     3560     3555     3557     3815
        4        4        4        4        0        0        0        0        8        0      227      471      472      274      273     3816     3563     3558     3560
        4        4        4        4        0        0        0        0        8        0      228      470      272      271      469     3557     3552     3554     3814
        4        4        4        4        0        0        0        0        8        0      229      274      472      473      275     3563     3817     3566     3561
        4        4        4        4        0        0        0        0        8        0      230      469      271      270      468     3554     3549     3551     3813
        4        4        4        4        0        0        0        0        8        0      231      275      473      474      276     3566     3818     3569     3564
        4        4        4        4        0        0        0        0        8        0      232      468      270      269      467     3551     3546     3548     3812
        4        4        4        4        0        0        0        0        8        0      233      276      474      475      277     3569     3819     3572     3567
        4        4        4        4        0        0        0        0        8        0      234      467      269      268      466     3548     3543     3545     3811
        4        4        4        4        0        0        0        0        8        0      235      277      475      476      278     3572     3820     3575     3570
        4        4        4        4        0        0        0        0        8        0      236      466      268      267      465     3545     3540     3542     3810
        4        4        4        4        0        0        0        0        8        0      237      278      476      477      279     3575     3821     3578     3573
        4        4        4        4        0        0        0        0        8        0      238      465      267      266      464     3542     3537     3539     3809
        4        4        4        4        0        0        0        0        8        0      239      279      477      478      280     3578     3822     3581     3576
        4        4        4        4        0        0        0        0        8        0      240      464      266      265      463     3539     3534     3536     3808
        4        4        4        4        0        0        0        0        8        0      241      280      478      479      281     3581     3823     3584     3579
        4        4        4        4        0        0        0        0        8        0      242      463      265      264      462     3536     3531     3533     3807
        4        4        4        4        0        0        0        0        8        0      243      281      479      480      282     3584     3824     3587     3582
        4        4        4        4        0        0        0        0        8        0      244      462      264      263      461     3533     3528     3530     3806
        4        4        4        4        0        0        0        0        8        0      245      282      480      481      283     3587     3825     3590     3585
! ... 80 like lines cut
!Material Id = {50AB487D-B561-490A-A5D1-FEBCABBB0DC7}
/com,*********** Elements for Body 5 "Surface Body" ***********
et,5,183
keyo,5,3,3
eblock,19,solid,,99
(19i9)
        5        5        5        5        0        0        0        0        8        0      325        9      503      504       10     2967     3847     2970     2965
        5        5        5        5        0        0        0        0        8        0      326        9        8      502      503     2962     2964     3846     2967
        5        5        5        5        0        0        0        0        8        0      327       10      504      505       11     2970     3848     2973     2968
        5        5        5        5        0        0        0        0        8        0      328      502        8        6      501     2964     2956     2957     3845
        5        5        5        5        0        0        0        0        8        0      329       11      505      506       12     2973     3849     2976     2971
        5        5        5        5        0        0        0        0        8        0      330       12      506      507       13     2976     3850     2979     2974
        5        5        5        5        0        0        0        0        8        0      331       13      507      508       14     2979     3851     2982     2977
        5        5        5        5        0        0        0        0        8        0      332       14      508      509       15     2982     3852     2985     2980
        5        5        5        5        0        0        0        0        8        0      333       15      509      510       16     2985     3853     2988     2983
        5        5        5        5        0        0        0        0        8        0      334       16      510      511       17     2988     3854     2991     2986
        5        5        5        5        0        0        0        0        8        0      335       17      511      512       18     2991     3855     2994     2989
        5        5        5        5        0        0        0        0        8        0      336       18      512      513       19     2994     3856     2997     2992
        5        5        5        5        0        0        0        0        8        0      337       19      513      514       20     2997     3857     3000     2995
        5        5        5        5        0        0        0        0        8        0      338       20      514      515       21     3000     3858     3003     2998
        5        5        5        5        0        0        0        0        8        0      339       21      515      516       22     3003     3859     3006     3001
        5        5        5        5        0        0        0        0        8        0      340       22      516      517       23     3006     3860     3009     3004
        5        5        5        5        0        0        0        0        8        0      341       23      517      518       24     3009     3861     3012     3007
        5        5        5        5        0        0        0        0        8        0      342       24      518      519       25     3012     3862     3015     3010
        5        5        5        5        0        0        0        0        8        0      343      519      520       26       25     3863     3018     3013     3015
        5        5        5        5        0        0        0        0        8        0      344      520      521       27       26     3864     3021     3016     3018
! ... 80 like lines cut
!Material Id = {55D10AED-5ED2-4C1E-8135-F8F31D78E9C7}
/com,*********** Elements for Body 6 "Surface Body" ***********
et,6,183
keyo,6,3,3
eblock,19,solid,,144
(19i9)
        6        6        6        6        0        0        0        0        8        0      424      889      745      602      746     4377     3947     3948     4379
        6        6        6        6        0        0        0        0        8        0      425      889      888      744      745     4522     4375     4374     4377
        6        6        6        6        0        0        0        0        8        0      426      744      888      887      743     4375     4521     4372     4371
        6        6        6        6        0        0        0        0        8        0      427      886      742      743      887     4369     4368     4372     4520
        6        6        6        6        0        0        0        0        8        0      428      886      885      741      742     4519     4366     4365     4369
        6        6        6        6        0        0        0        0        8        0      429      885      884      740      741     4518     4363     4362     4366
        6        6        6        6        0        0        0        0        8        0      430      884      883      739      740     4517     4360     4359     4363
        6        6        6        6        0        0        0        0        8        0      431      883      882      738      739     4516     4357     4356     4360
        6        6        6        6        0        0        0        0        8        0      432      882      881      737      738     4515     4354     4353     4357
        6        6        6        6        0        0        0        0        8        0      433      881      880      736      737     4514     4351     4350     4354
        6        6        6        6        0        0        0        0        8        0      434      880      879      735      736     4513     4348     4347     4351
        6        6        6        6        0        0        0        0        8        0      435      879      878      734      735     4512     4345     4344     4348
        6        6        6        6        0        0        0        0        8        0      436      878      877      733      734     4511     4342     4341     4345
        6        6        6        6        0        0        0        0        8        0      437      877      876      732      733     4510     4339     4338     4342
        6        6        6        6        0        0        0        0        8        0      438      876      875      731      732     4509     4336     4335     4339
        6        6        6        6        0        0        0        0        8        0      439      875      874      730      731     4508     4333     4332     4336
        6        6        6        6        0        0        0        0        8        0      440      874      873      729      730     4507     4330     4329     4333
        6        6        6        6        0        0        0        0        8        0      441      873      872      728      729     4506     4327     4326     4330
        6        6        6        6        0        0        0        0        8        0      442      872      871      727      728     4505     4324     4323     4327
        6        6        6        6        0        0        0        0        8        0      443      871      870      726      727     4504     4321     4320     4324
! ... 125 like lines cut
!Material Id = {9E38CA5F-A36D-4263-BB26-B579A5441803}
/com,*********** Elements for Body 7 "Surface Body" ***********
et,7,183
keyo,7,3,3
eblock,19,solid,,143
(19i9)
        7        7        7        7        0        0        0        0        8        0      568     1175     1032      890     1033     4949     4523     4524     4950
        7        7        7        7        0        0        0        0        8        0      569     1175     1174     1031     1032     5092     4947     4946     4949
        7        7        7        7        0        0        0        0        8        0      570     1031     1174     1173     1030     4947     5091     4944     4943
        7        7        7        7        0        0        0        0        8        0      571     1030     1173     1172     1029     4944     5090     4941     4940
        7        7        7        7        0        0        0        0        8        0      572     1029     1172     1171     1028     4941     5089     4938     4937
        7        7        7        7        0        0        0        0        8        0      573     1028     1171     1170     1027     4938     5088     4935     4934
        7        7        7        7        0        0        0        0        8        0      574     1027     1170     1169     1026     4935     5087     4932     4931
        7        7        7        7        0        0        0        0        8        0      575     1026     1169     1168     1025     4932     5086     4929     4928
        7        7        7        7        0        0        0        0        8        0      576     1025     1168     1167     1024     4929     5085     4926     4925
        7        7        7        7        0        0        0        0        8        0      577     1024     1167     1166     1023     4926     5084     4923     4922
        7        7        7        7        0        0        0        0        8        0      578     1165     1022     1023     1166     4920     4919     4923     5083
        7        7        7        7        0        0        0        0        8        0      579     1164     1021     1022     1165     4917     4916     4920     5082
        7        7        7        7        0        0        0        0        8        0      580     1164     1163     1020     1021     5081     4914     4913     4917
        7        7        7        7        0        0        0        0        8        0      581     1163     1162     1019     1020     5080     4911     4910     4914
        7        7        7        7        0        0        0        0        8        0      582     1162     1161     1018     1019     5079     4908     4907     4911
        7        7        7        7        0        0        0        0        8        0      583     1161     1160     1017     1018     5078     4905     4904     4908
        7        7        7        7        0        0        0        0        8        0      584     1160     1159     1016     1017     5077     4902     4901     4905
        7        7        7        7        0        0        0        0        8        0      585     1159     1158     1015     1016     5076     4899     4898     4902
        7        7        7        7        0        0        0        0        8        0      586     1158     1157     1014     1015     5075     4896     4895     4899
        7        7        7        7        0        0        0        0        8        0      587     1157     1156     1013     1014     5074     4893     4892     4896
! ... 124 like lines cut
!Material Id = {8BAAF139-D4AF-454C-939D-0AF8828C7D5D}
/com,*********** Elements for Body 8 "Surface Body" ***********
et,8,183
keyo,8,3,3
eblock,19,solid,,143
(19i9)
        8        8        8        8        0        0        0        0        8        0      711     1024     1184     1183     1025     4927     5101     4930     4925
        8        8        8        8        0        0        0        0        8        0      712     1183     1182     1026     1025     5100     4933     4928     4930
        8        8        8        8        0        0        0        0        8        0      713     1023     1185     1184     1024     4924     5102     4927     4922
        8        8        8        8        0        0        0        0        8        0      714     1026     1182     1181     1027     4933     5099     4936     4931
        8        8        8        8        0        0        0        0        8        0      715     1022     1186     1185     1023     4921     5103     4924     4919
        8        8        8        8        0        0        0        0        8        0      716     1027     1181     1180     1028     4936     5098     4939     4934
        8        8        8        8        0        0        0        0        8        0      717     1021     1187     1186     1022     4918     5104     4921     4916
        8        8        8        8        0        0        0        0        8        0      718     1028     1180     1179     1029     4939     5097     4942     4937
        8        8        8        8        0        0        0        0        8        0      719     1020     1188     1187     1021     4915     5105     4918     4913
        8        8        8        8        0        0        0        0        8        0      720     1029     1179     1178     1030     4942     5096     4945     4940
        8        8        8        8        0        0        0        0        8        0      721     1019     1189     1188     1020     4912     5106     4915     4910
        8        8        8        8        0        0        0        0        8        0      722     1030     1178     1177     1031     4945     5095     4948     4943
        8        8        8        8        0        0        0        0        8        0      723     1018     1190     1189     1019     4909     5107     4912     4907
        8        8        8        8        0        0        0        0        8        0      724     1031     1177        1     1032     4948     2943     2942     4946
        8        8        8        8        0        0        0        0        8        0      725     1017     1191     1190     1018     4906     5108     4909     4904
        8        8        8        8        0        0        0        0        8        0      726     1032        1        4      890     2942     2941     2951     4523
        8        8        8        8        0        0        0        0        8        0      727     1016     1192     1191     1017     4903     5109     4906     4901
        8        8        8        8        0        0        0        0        8        0      728     1015     1193     1192     1016     4900     5110     4903     4898
        8        8        8        8        0        0        0        0        8        0      729     1015     1014     1194     1193     4895     4897     5111     4900
        8        8        8        8        0        0        0        0        8        0      730     1014     1013     1195     1194     4892     4894     5112     4897
! ... 124 like lines cut
!Material Id = {AB3B25FD-33ED-4A6F-8C04-98EE9FE778EF}
/com,*********** Elements for Body 9 "Surface Body" ***********
et,9,183
keyo,9,3,3
eblock,19,solid,,144
(19i9)
        9        9        9        9        0        0        0        0        8        0      854     1390      674      673     1391     4166     4161     4163     5307
        9        9        9        9        0        0        0        0        8        0      855     1390     1389      675      674     5306     4169     4164     4166
        9        9        9        9        0        0        0        0        8        0      856     1391      673      672     1392     4163     4158     4160     5308
        9        9        9        9        0        0        0        0        8        0      857      675     1389     1388      676     4169     5305     4172     4167
        9        9        9        9        0        0        0        0        8        0      858     1392      672      671     1393     4160     4155     4157     5309
        9        9        9        9        0        0        0        0        8        0      859      676     1388     1387      677     4172     5304     4175     4170
        9        9        9        9        0        0        0        0        8        0      860     1393      671      670     1394     4157     4152     4154     5310
        9        9        9        9        0        0        0        0        8        0      861      677     1387     1386      678     4175     5303     4178     4173
        9        9        9        9        0        0        0        0        8        0      862     1394      670      669     1395     4154     4149     4151     5311
        9        9        9        9        0        0        0        0        8        0      863      678     1386     1385      679     4178     5302     4181     4176
        9        9        9        9        0        0        0        0        8        0      864     1395      669      668     1396     4151     4146     4148     5312
        9        9        9        9        0        0        0        0        8        0      865      679     1385     1384      680     4181     5301     4184     4179
        9        9        9        9        0        0        0        0        8        0      866     1396      668      667     1397     4148     4143     4145     5313
        9        9        9        9        0        0        0        0        8        0      867      680     1384     1383      681     4184     5300     4187     4182
        9        9        9        9        0        0        0        0        8        0      868     1397      667      666     1398     4145     4140     4142     5314
        9        9        9        9        0        0        0        0        8        0      869      681     1383     1382      682     4187     5299     4190     4185
        9        9        9        9        0        0        0        0        8        0      870     1398      666      665     1399     4142     4137     4139     5315
        9        9        9        9        0        0        0        0        8        0      871      682     1382     1381      683     4190     5298     4193     4188
        9        9        9        9        0        0        0        0        8        0      872     1399      665      664     1400     4139     4134     4136     5316
        9        9        9        9        0        0        0        0        8        0      873      683     1381     1380      684     4193     5297     4196     4191
! ... 125 like lines cut
!Material Id = {1B038457-0F63-4D05-B259-BC61C8C687A6}
/com,*********** Elements for Body 10 "Surface Body" ***********
et,10,183
keyo,10,3,3
eblock,19,solid,,27
(19i9)
       10       10       10       10        0        0        0        0        8        0      998      402     2888     2837        3     3747     7713     2950     2949
       10       10       10       10        0        0        0        0        8        0      999     2888     2887     2838     2837     7787     7715     7712     7713
       10       10       10       10        0        0        0        0        8        0     1000     2887     2886     2839     2838     7786     7717     7714     7715
       10       10       10       10        0        0        0        0        8        0     1001     2886     2885     2840     2839     7785     7719     7716     7717
       10       10       10       10        0        0        0        0        8        0     1002     2885     2884     2841     2840     7784     7721     7718     7719
       10       10       10       10        0        0        0        0        8        0     1003     2884     2883     2842     2841     7783     7723     7720     7721
       10       10       10       10        0        0        0        0        8        0     1004     2883     2882     2843     2842     7782     7725     7722     7723
       10       10       10       10        0        0        0        0        8        0     1005     2882     2881     2844     2843     7781     7727     7724     7725
       10       10       10       10        0        0        0        0        8        0     1006     2881     2880     2845     2844     7780     7729     7726     7727
       10       10       10       10        0        0        0        0        8        0     1007     2880     2879     2846     2845     7779     7731     7728     7729
       10       10       10       10        0        0        0        0        8        0     1008     2879     2878     2847     2846     7778     7733     7730     7731
       10       10       10       10        0        0        0        0        8        0     1009     2878     2877     2848     2847     7777     7735     7732     7733
       10       10       10       10        0        0        0        0        8        0     1010     2877     2876     2849     2848     7776     7737     7734     7735
       10       10       10       10        0        0        0        0        8        0     1011     2876     2875     2850     2849     7775     7739     7736     7737
       10       10       10       10        0        0        0        0        8        0     1012     2875     2874     2851     2850     7774     7741     7738     7739
       10       10       10       10        0        0        0        0        8        0     1013     2874     2873     2852     2851     7773     7743     7740     7741
       10       10       10       10        0        0        0        0        8        0     1014     2873     2872     2853     2852     7772     7745     7742     7743
       10       10       10       10        0        0        0        0        8        0     1015     2872     2871     2854     2853     7771     7747     7744     7745
       10       10       10       10        0        0        0        0        8        0     1016     2871     2870     2855     2854     7770     7749     7746     7747
       10       10       10       10        0        0        0        0        8        0     1017     2870     2869     2856     2855     7769     7751     7748     7749
! ... 8 like lines cut
!Material Id = {90261002-2F05-4B66-80AB-9D5A5F53F5A4}
/com,*********** Elements for Body 11 "UPP" ***********
et,11,183
keyo,11,3,3
eblock,19,solid,,27
(19i9)
       11       11       11       11        0        0        0        0        8        0     1025     1465     2785     2940     1464     5389     7611     5386     5383
       11       11       11       11        0        0        0        0        8        0     1026     2785     2786     2939     2940     7610     7613     7837     7611
       11       11       11       11        0        0        0        0        8        0     1027     2786     2787     2938     2939     7612     7615     7836     7613
       11       11       11       11        0        0        0        0        8        0     1028     2787     2788     2937     2938     7614     7617     7835     7615
       11       11       11       11        0        0        0        0        8        0     1029     2788     2789     2936     2937     7616     7619     7834     7617
       11       11       11       11        0        0        0        0        8        0     1030     2789     2790     2935     2936     7618     7621     7833     7619
       11       11       11       11        0        0        0        0        8        0     1031     2790     2791     2934     2935     7620     7623     7832     7621
       11       11       11       11        0        0        0        0        8        0     1032     2791     2792     2933     2934     7622     7625     7831     7623
       11       11       11       11        0        0        0        0        8        0     1033     2792     2793     2932     2933     7624     7627     7830     7625
       11       11       11       11        0        0        0        0        8        0     1034     2793     2794     2931     2932     7626     7629     7829     7627
       11       11       11       11        0        0        0        0        8        0     1035     2794     2795     2930     2931     7628     7631     7828     7629
       11       11       11       11        0        0        0        0        8        0     1036     2795     2796     2929     2930     7630     7633     7827     7631
       11       11       11       11        0        0        0        0        8        0     1037     2796     2797     2928     2929     7632     7635     7826     7633
       11       11       11       11        0        0        0        0        8        0     1038     2797     2798     2927     2928     7634     7637     7825     7635
       11       11       11       11        0        0        0        0        8        0     1039     2798     2799     2926     2927     7636     7639     7824     7637
       11       11       11       11        0        0        0        0        8        0     1040     2799     2800     2925     2926     7638     7641     7823     7639
       11       11       11       11        0        0        0        0        8        0     1041     2800     2801     2924     2925     7640     7643     7822     7641
       11       11       11       11        0        0        0        0        8        0     1042     2801     2802     2923     2924     7642     7645     7821     7643
       11       11       11       11        0        0        0        0        8        0     1043     2802     2803     2922     2923     7644     7647     7820     7645
       11       11       11       11        0        0        0        0        8        0     1044     2803     2804     2921     2922     7646     7649     7819     7647
! ... 8 like lines cut
!Material Id = {39B824F1-3CE3-4DF5-91E2-3D1A0A3BBD8B}
/com,*********** Elements for Body 12 "Surface Body" ***********
et,12,183
keyo,12,3,3
eblock,19,solid,,27
(19i9)
       12       12       12       12        0        0        0        0        8        0     1052     1469     2733     2732     1468     5399     7507     5395     5394
       12       12       12       12        0        0        0        0        8        0     1053     2733     2734     2731     2732     7508     7506     7505     7507
       12       12       12       12        0        0        0        0        8        0     1054     2734     2735     2730     2731     7510     7504     7503     7506
       12       12       12       12        0        0        0        0        8        0     1055     2735     2736     2729     2730     7512     7502     7501     7504
       12       12       12       12        0        0        0        0        8        0     1056     2736     2737     2728     2729     7514     7500     7499     7502
       12       12       12       12        0        0        0        0        8        0     1057     2737     2738     2727     2728     7516     7498     7497     7500
       12       12       12       12        0        0        0        0        8        0     1058     2738     2739     2726     2727     7518     7496     7495     7498
       12       12       12       12        0        0        0        0        8        0     1059     2739     2740     2725     2726     7520     7494     7493     7496
       12       12       12       12        0        0        0        0        8        0     1060     2740     2741     2724     2725     7522     7492     7491     7494
       12       12       12       12        0        0        0        0        8        0     1061     2741     2742     2723     2724     7524     7490     7489     7492
       12       12       12       12        0        0        0        0        8        0     1062     2742     2743     2722     2723     7526     7488     7487     7490
       12       12       12       12        0        0        0        0        8        0     1063     2743     2744     2721     2722     7528     7486     7485     7488
       12       12       12       12        0        0        0        0        8        0     1064     2744     2745     2720     2721     7530     7484     7483     7486
       12       12       12       12        0        0        0        0        8        0     1065     2745     2746     2719     2720     7532     7482     7481     7484
       12       12       12       12        0        0        0        0        8        0     1066     2746     2747     2718     2719     7534     7480     7479     7482
       12       12       12       12        0        0        0        0        8        0     1067     2747     2748     2717     2718     7536     7478     7477     7480
       12       12       12       12        0        0        0        0        8        0     1068     2748     2749     2716     2717     7538     7476     7475     7478
       12       12       12       12        0        0        0        0        8        0     1069     2749     2750     2715     2716     7540     7474     7473     7476
       12       12       12       12        0        0        0        0        8        0     1070     2750     2751     2714     2715     7542     7472     7471     7474
       12       12       12       12        0        0        0        0        8        0     1071     2751     2752     2713     2714     7544     7470     7469     7472
! ... 8 like lines cut
!Material Id = {1BB3BAEF-5D04-4EC5-A6BD-54E2D74163D5}
/com,*********** Elements for Body 13 "Surface Body" ***********
et,13,183
keyo,13,3,3
eblock,19,solid,,27
(19i9)
       13       13       13       13        0        0        0        0        8        0     1079     1468     2784     2785     1465     5396     7609     5389     5387
       13       13       13       13        0        0        0        0        8        0     1080     2784     2783     2786     2785     7607     7608     7610     7609
       13       13       13       13        0        0        0        0        8        0     1081     2783     2782     2787     2786     7605     7606     7612     7608
       13       13       13       13        0        0        0        0        8        0     1082     2782     2781     2788     2787     7603     7604     7614     7606
       13       13       13       13        0        0        0        0        8        0     1083     2781     2780     2789     2788     7601     7602     7616     7604
       13       13       13       13        0        0        0        0        8        0     1084     2780     2779     2790     2789     7599     7600     7618     7602
       13       13       13       13        0        0        0        0        8        0     1085     2779     2778     2791     2790     7597     7598     7620     7600
       13       13       13       13        0        0        0        0        8        0     1086     2778     2777     2792     2791     7595     7596     7622     7598
       13       13       13       13        0        0        0        0        8        0     1087     2777     2776     2793     2792     7593     7594     7624     7596
       13       13       13       13        0        0        0        0        8        0     1088     2776     2775     2794     2793     7591     7592     7626     7594
       13       13       13       13        0        0        0        0        8        0     1089     2775     2774     2795     2794     7589     7590     7628     7592
       13       13       13       13        0        0        0        0        8        0     1090     2774     2773     2796     2795     7587     7588     7630     7590
       13       13       13       13        0        0        0        0        8        0     1091     2773     2772     2797     2796     7585     7586     7632     7588
       13       13       13       13        0        0        0        0        8        0     1092     2772     2771     2798     2797     7583     7584     7634     7586
       13       13       13       13        0        0        0        0        8        0     1093     2771     2770     2799     2798     7581     7582     7636     7584
       13       13       13       13        0        0        0        0        8        0     1094     2770     2769     2800     2799     7579     7580     7638     7582
       13       13       13       13        0        0        0        0        8        0     1095     2769     2768     2801     2800     7577     7578     7640     7580
       13       13       13       13        0        0        0        0        8        0     1096     2768     2767     2802     2801     7575     7576     7642     7578
       13       13       13       13        0        0        0        0        8        0     1097     2767     2766     2803     2802     7573     7574     7644     7576
       13       13       13       13        0        0        0        0        8        0     1098     2766     2765     2804     2803     7571     7572     7646     7574
! ... 8 like lines cut
!Material Id = {85A638CB-B404-473C-94D2-EDEF2C8C5A54}
/com,*********** Elements for Body 14 "Surface Body" ***********
et,14,183
keyo,14,3,3
eblock,19,solid,,27
(19i9)
       14       14       14       14        0        0        0        0        8        0     1106     1472     2914     2733     1469     5403     7509     5399     5397
       14       14       14       14        0        0        0        0        8        0     1107     2914     2913     2734     2733     7812     7511     7508     7509
       14       14       14       14        0        0        0        0        8        0     1108     2913     2912     2735     2734     7811     7513     7510     7511
       14       14       14       14        0        0        0        0        8        0     1109     2912     2911     2736     2735     7810     7515     7512     7513
       14       14       14       14        0        0        0        0        8        0     1110     2911     2910     2737     2736     7809     7517     7514     7515
       14       14       14       14        0        0        0        0        8        0     1111     2910     2909     2738     2737     7808     7519     7516     7517
       14       14       14       14        0        0        0        0        8        0     1112     2909     2908     2739     2738     7807     7521     7518     7519
       14       14       14       14        0        0        0        0        8        0     1113     2908     2907     2740     2739     7806     7523     7520     7521
       14       14       14       14        0        0        0        0        8        0     1114     2907     2906     2741     2740     7805     7525     7522     7523
       14       14       14       14        0        0        0        0        8        0     1115     2906     2905     2742     2741     7804     7527     7524     7525
       14       14       14       14        0        0        0        0        8        0     1116     2905     2904     2743     2742     7803     7529     7526     7527
       14       14       14       14        0        0        0        0        8        0     1117     2904     2903     2744     2743     7802     7531     7528     7529
       14       14       14       14        0        0        0        0        8        0     1118     2903     2902     2745     2744     7801     7533     7530     7531
       14       14       14       14        0        0        0        0        8        0     1119     2902     2901     2746     2745     7800     7535     7532     7533
       14       14       14       14        0        0        0        0        8        0     1120     2901     2900     2747     2746     7799     7537     7534     7535
       14       14       14       14        0        0        0        0        8        0     1121     2900     2899     2748     2747     7798     7539     7536     7537
       14       14       14       14        0        0        0        0        8        0     1122     2899     2898     2749     2748     7797     7541     7538     7539
       14       14       14       14        0        0        0        0        8        0     1123     2898     2897     2750     2749     7796     7543     7540     7541
       14       14       14       14        0        0        0        0        8        0     1124     2897     2896     2751     2750     7795     7545     7542     7543
       14       14       14       14        0        0        0        0        8        0     1125     2896     2895     2752     2751     7794     7547     7544     7545
! ... 8 like lines cut
!Material Id = {5D17ED8E-69EB-404A-82D2-F00D37EDED81}
/com,*********** Elements for Body 15 "Surface Body" ***********
et,15,183
keyo,15,3,3
eblock,19,solid,,206
(19i9)
       15       15       15       15        0        0        0        0        8        0     1133     1686     1479     1478     1685     5418     5415     5416     5829
       15       15       15       15        0        0        0        0        8        0     1134     1686     1687     1480     1479     5831     5420     5417     5418
       15       15       15       15        0        0        0        0        8        0     1135     1685     1478     1477     1684     5416     5413     5414     5827
       15       15       15       15        0        0        0        0        8        0     1136     1480     1687     1688     1481     5420     5833     5422     5419
       15       15       15       15        0        0        0        0        8        0     1137     1684     1477     1476     1683     5414     5411     5412     5825
       15       15       15       15        0        0        0        0        8        0     1138     1481     1688     1689     1482     5422     5835     5424     5421
       15       15       15       15        0        0        0        0        8        0     1139     1683     1476     1475     1682     5412     5409     5410     5823
       15       15       15       15        0        0        0        0        8        0     1140     1482     1689     1690     1483     5424     5837     5426     5423
       15       15       15       15        0        0        0        0        8        0     1141     1682     1475     1473     1680     5410     5404     5405     5818
       15       15       15       15        0        0        0        0        8        0     1142     1483     1690     1691     1484     5426     5839     5428     5425
       15       15       15       15        0        0        0        0        8        0     1143     1484     1691     1692     1485     5428     5841     5430     5427
       15       15       15       15        0        0        0        0        8        0     1144     1692     1693     1486     1485     5843     5432     5429     5430
       15       15       15       15        0        0        0        0        8        0     1145     1693     1694     1487     1486     5845     5434     5431     5432
       15       15       15       15        0        0        0        0        8        0     1146     1694     1695     1488     1487     5847     5436     5433     5434
       15       15       15       15        0        0        0        0        8        0     1147     1695     1696     1489     1488     5849     5438     5435     5436
       15       15       15       15        0        0        0        0        8        0     1148     1696     1697     1490     1489     5851     5440     5437     5438
       15       15       15       15        0        0        0        0        8        0     1149     1697     1698     1491     1490     5853     5442     5439     5440
       15       15       15       15        0        0        0        0        8        0     1150     1698     1699     1492     1491     5855     5444     5441     5442
       15       15       15       15        0        0        0        0        8        0     1151     1699     1700     1493     1492     5857     5446     5443     5444
       15       15       15       15        0        0        0        0        8        0     1152     1700     1701     1494     1493     5859     5448     5445     5446
! ... 187 like lines cut
!Material Id = {95EE5432-062C-466E-A834-207149C5B322}
/com,*********** Elements for Body 16 "Surface Body" ***********
et,16,183
keyo,16,3,3
eblock,19,solid,,206
(19i9)
       16       16       16       16        0        0        0        0        8        0     1339     1893     1686     1685     1892     5832     5829     5830     6238
       16       16       16       16        0        0        0        0        8        0     1340     1893     1894     1687     1686     6239     5834     5831     5832
       16       16       16       16        0        0        0        0        8        0     1341     1892     1685     1684     1891     5830     5827     5828     6237
       16       16       16       16        0        0        0        0        8        0     1342     1687     1894     1895     1688     5834     6240     5836     5833
       16       16       16       16        0        0        0        0        8        0     1343     1891     1684     1683     1890     5828     5825     5826     6236
       16       16       16       16        0        0        0        0        8        0     1344     1688     1895     1896     1689     5836     6241     5838     5835
       16       16       16       16        0        0        0        0        8        0     1345     1890     1683     1682     1889     5826     5823     5824     6235
       16       16       16       16        0        0        0        0        8        0     1346     1689     1896     1897     1690     5838     6242     5840     5837
       16       16       16       16        0        0        0        0        8        0     1347     1889     1682     1680     1887     5824     5818     5819     6232
       16       16       16       16        0        0        0        0        8        0     1348     1690     1897     1898     1691     5840     6243     5842     5839
       16       16       16       16        0        0        0        0        8        0     1349     1691     1898     1899     1692     5842     6244     5844     5841
       16       16       16       16        0        0        0        0        8        0     1350     1899     1900     1693     1692     6245     5846     5843     5844
       16       16       16       16        0        0        0        0        8        0     1351     1900     1901     1694     1693     6246     5848     5845     5846
       16       16       16       16        0        0        0        0        8        0     1352     1901     1902     1695     1694     6247     5850     5847     5848
       16       16       16       16        0        0        0        0        8        0     1353     1902     1903     1696     1695     6248     5852     5849     5850
       16       16       16       16        0        0        0        0        8        0     1354     1903     1904     1697     1696     6249     5854     5851     5852
       16       16       16       16        0        0        0        0        8        0     1355     1904     1905     1698     1697     6250     5856     5853     5854
       16       16       16       16        0        0        0        0        8        0     1356     1905     1906     1699     1698     6251     5858     5855     5856
       16       16       16       16        0        0        0        0        8        0     1357     1906     1907     1700     1699     6252     5860     5857     5858
       16       16       16       16        0        0        0        0        8        0     1358     1907     1908     1701     1700     6253     5862     5859     5860
! ... 187 like lines cut
!Material Id = {9D77B5CC-9E06-4FCD-B2BD-B6D5506EEED2}
/com,*********** Elements for Body 17 "Surface Body" ***********
et,17,183
keyo,17,3,3
eblock,19,solid,,205
(19i9)
       17       17       17       17        0        0        0        0        8        0     1545     1464     2095     2094     1465     5384     6439     5388     5383
       17       17       17       17        0        0        0        0        8        0     1546     1464     2299     2096     2095     5385     6444     6441     5384
       17       17       17       17        0        0        0        0        8        0     1547     2096     2299     2300     2097     6444     7051     6447     6443
       17       17       17       17        0        0        0        0        8        0     1548     2097     2300     2301     2098     6447     7052     6450     6446
       17       17       17       17        0        0        0        0        8        0     1549     2098     2301     2302     2099     6450     7053     6453     6449
       17       17       17       17        0        0        0        0        8        0     1550     2099     2302     2303     2100     6453     7054     6456     6452
       17       17       17       17        0        0        0        0        8        0     1551     2100     2303     2304     2101     6456     7055     6459     6455
       17       17       17       17        0        0        0        0        8        0     1552     2101     2304     2305     2102     6459     7056     6462     6458
       17       17       17       17        0        0        0        0        8        0     1553     2102     2305     2306     2103     6462     7057     6465     6461
       17       17       17       17        0        0        0        0        8        0     1554     2103     2306     2307     2104     6465     7058     6468     6464
       17       17       17       17        0        0        0        0        8        0     1555     2104     2307     2308     2105     6468     7059     6471     6467
       17       17       17       17        0        0        0        0        8        0     1556     2105     2308     2309     2106     6471     7060     6474     6470
       17       17       17       17        0        0        0        0        8        0     1557     2106     2309     2310     2107     6474     7061     6477     6473
       17       17       17       17        0        0        0        0        8        0     1558     2107     2310     2311     2108     6477     7062     6480     6476
       17       17       17       17        0        0        0        0        8        0     1559     2108     2311     2312     2109     6480     7063     6483     6479
       17       17       17       17        0        0        0        0        8        0     1560     2109     2312     2313     2110     6483     7064     6486     6482
       17       17       17       17        0        0        0        0        8        0     1561     2110     2313     2314     2111     6486     7065     6489     6485
       17       17       17       17        0        0        0        0        8        0     1562     2111     2314     2315     2112     6489     7066     6492     6488
       17       17       17       17        0        0        0        0        8        0     1563     2112     2315     2316     2113     6492     7067     6495     6491
       17       17       17       17        0        0        0        0        8        0     1564     2113     2316     2317     2114     6495     7068     6498     6494
! ... 186 like lines cut
!Material Id = {9204E929-FCB7-4DA3-98A3-5ED45AB82EA7}
/com,*********** Elements for Body 18 "Surface Body" ***********
et,18,183
keyo,18,3,3
eblock,19,solid,,205
(19i9)
       18       18       18       18        0        0        0        0        8        0     1750     2115     2523     2522     2114     6502     7273     6499     6497
       18       18       18       18        0        0        0        0        8        0     1751     2115     2116     2524     2523     6500     6505     7274     6502
       18       18       18       18        0        0        0        0        8        0     1752     2114     2522     2521     2113     6499     7272     6496     6494
       18       18       18       18        0        0        0        0        8        0     1753     2524     2116     2117     2525     6505     6503     6508     7275
       18       18       18       18        0        0        0        0        8        0     1754     2113     2521     2520     2112     6496     7271     6493     6491
       18       18       18       18        0        0        0        0        8        0     1755     2525     2117     2118     2526     6508     6506     6511     7276
       18       18       18       18        0        0        0        0        8        0     1756     2112     2520     2519     2111     6493     7270     6490     6488
       18       18       18       18        0        0        0        0        8        0     1757     2526     2118     2119     2527     6511     6509     6514     7277
       18       18       18       18        0        0        0        0        8        0     1758     2111     2519     2518     2110     6490     7269     6487     6485
       18       18       18       18        0        0        0        0        8        0     1759     2527     2119     2120     2528     6514     6512     6517     7278
       18       18       18       18        0        0        0        0        8        0     1760     2110     2518     2517     2109     6487     7268     6484     6482
       18       18       18       18        0        0        0        0        8        0     1761     2528     2120     2121     2529     6517     6515     6520     7279
       18       18       18       18        0        0        0        0        8        0     1762     2109     2517     2516     2108     6484     7267     6481     6479
       18       18       18       18        0        0        0        0        8        0     1763     2529     2121     2122     2530     6520     6518     6523     7280
       18       18       18       18        0        0        0        0        8        0     1764     2108     2516     2515     2107     6481     7266     6478     6476
       18       18       18       18        0        0        0        0        8        0     1765     2530     2122     2123     2531     6523     6521     6526     7281
       18       18       18       18        0        0        0        0        8        0     1766     2107     2515     2514     2106     6478     7265     6475     6473
       18       18       18       18        0        0        0        0        8        0     1767     2531     2123     2124     2532     6526     6524     6529     7282
       18       18       18       18        0        0        0        0        8        0     1768     2106     2514     2513     2105     6475     7264     6472     6470
       18       18       18       18        0        0        0        0        8        0     1769     2532     2124     2125     2533     6529     6527     6532     7283
! ... 186 like lines cut
!Material Id = {F36941F1-87B9-4C05-A425-FB2DAD0855A1}
/com,*********** Elements for Body 19 "Surface Body" ***********
et,19,183
keyo,19,3,3
eblock,19,solid,,1
(19i9)
       19       19       19       19        0        0        0        0        8        0     1955     1463      890        4     1462     4525     2951     2952     5378
-1
!Material Id = {D36A79B5-2513-4A04-A202-3181511B0C88}
/com,*********** Elements for Body 20 "Surface Body" ***********
et,20,183
keyo,20,3,3
eblock,19,solid,,1
(19i9)
       20       20       20       20        0        0        0        0        8        0     1956     1470     1033      890     1463     4951     4524     4525     5381
-1
!Material Id = {388EBCDF-6742-4552-B005-AEC54E1CE407}
/com,*********** Elements for Body 21 "Surface Body" ***********
et,21,183
keyo,21,3,3
eblock,19,solid,,1
(19i9)
       21       21       21       21        0        0        0        0        8        0     1957     2094     1469     1468     1465     5398     5394     5387     5388
-1
!Material Id = {0FCEDF95-5686-47BF-95AD-FB1FB22F9133}
/com,*********** Elements for Body 22 "Surface Body" ***********
et,22,183
keyo,22,3,3
eblock,19,solid,,1
(19i9)
       22       22       22       22        0        0        0        0        8        0     1958     2094     2502     1472     1469     6440     5402     5397     5398
-1
!Material Id = {E110DE4C-1556-4B51-80C8-447B0E66F6B6}
/wb,elem,end               !  done creating elements
/com,*********** Send User Defined Coordinate System(s) ***********
csys,0
toffst,273.15,  ! Temperature offset from absolute zero
/com,*********** Set Reference Temperature ***********
tref,22.
/wb,mat,start              !  starting to send materials
/com,*********** Send Materials ***********
MP,DENS,1,2329,	! kg m^-3
MP,ALPX,1,1.2e-05,	! C^-1
MP,C,1,434,	! J kg^-1 C^-1
MP,KXX,1,60.5,	! W m^-1 C^-1
MP,RSVX,1,1.7e-07,	! kg m^3 A^-2 s^-3
MP,EX,1,148000000000,	! Pa
MP,NUXY,1,0.3,
MP,MURX,1,10000,

MP,DENS,2,2329,	! kg m^-3
MP,ALPX,2,1.2e-05,	! C^-1
MP,C,2,434,	! J kg^-1 C^-1
MP,KXX,2,60.5,	! W m^-1 C^-1
MP,RSVX,2,1.7e-07,	! kg m^3 A^-2 s^-3
MP,EX,2,148000000000,	! Pa
MP,NUXY,2,0.3,
MP,MURX,2,10000,

MP,DENS,3,2329,	! kg m^-3
MP,ALPX,3,1.2e-05,	! C^-1
MP,C,3,434,	! J kg^-1 C^-1
MP,KXX,3,60.5,	! W m^-1 C^-1
MP,RSVX,3,1.7e-07,	! kg m^3 A^-2 s^-3
MP,EX,3,148000000000,	! Pa
MP,NUXY,3,0.3,
MP,MURX,3,10000,

MP,DENS,4,2329,	! kg m^-3
MP,ALPX,4,1.2e-05,	! C^-1
MP,C,4,434,	! J kg^-1 C^-1
MP,KXX,4,60.5,	! W m^-1 C^-1
MP,RSVX,4,1.7e-07,	! kg m^3 A^-2 s^-3
MP,EX,4,148000000000,	! Pa
MP,NUXY,4,0.3,
MP,MURX,4,10000,

MP,DENS,5,2329,	! kg m^-3
MP,ALPX,5,1.2e-05,	! C^-1
MP,C,5,434,	! J kg^-1 C^-1
MP,KXX,5,60.5,	! W m^-1 C^-1
MP,RSVX,5,1.7e-07,	! kg m^3 A^-2 s^-3
MP,EX,5,148000000000,	! Pa
MP,NUXY,5,0.3,
MP,MURX,5,10000,

MP,DENS,6,2329,	! kg m^-3
MP,ALPX,6,1.2e-05,	! C^-1
MP,C,6,434,	! J kg^-1 C^-1
MP,KXX,6,60.5,	! W m^-1 C^-1
MP,RSVX,6,1.7e-07,	! kg m^3 A^-2 s^-3
MP,EX,6,148000000000,	! Pa
MP,NUXY,6,0.3,
MP,MURX,6,10000,

MP,DENS,7,2329,	! kg m^-3
MP,ALPX,7,1.2e-05,	! C^-1
MP,C,7,434,	! J kg^-1 C^-1
MP,KXX,7,60.5,	! W m^-1 C^-1
MP,RSVX,7,1.7e-07,	! kg m^3 A^-2 s^-3
MP,EX,7,148000000000,	! Pa
MP,NUXY,7,0.3,
MP,MURX,7,10000,

MP,DENS,8,2329,	! kg m^-3
MP,ALPX,8,1.2e-05,	! C^-1
MP,C,8,434,	! J kg^-1 C^-1
MP,KXX,8,60.5,	! W m^-1 C^-1
MP,RSVX,8,1.7e-07,	! kg m^3 A^-2 s^-3
MP,EX,8,148000000000,	! Pa
MP,NUXY,8,0.3,
MP,MURX,8,10000,

MP,DENS,9,2329,	! kg m^-3
MP,ALPX,9,1.2e-05,	! C^-1
MP,C,9,434,	! J kg^-1 C^-1
MP,KXX,9,60.5,	! W m^-1 C^-1
MP,RSVX,9,1.7e-07,	! kg m^3 A^-2 s^-3
MP,EX,9,148000000000,	! Pa
MP,NUXY,9,0.3,
MP,MURX,9,10000,

MP,DENS,10,2329,	! kg m^-3
MP,ALPX,10,1.2e-05,	! C^-1
MP,C,10,434,	! J kg^-1 C^-1
MP,KXX,10,60.5,	! W m^-1 C^-1
MP,RSVX,10,1.7e-07,	! kg m^3 A^-2 s^-3
MP,EX,10,148000000000,	! Pa
MP,NUXY,10,0.3,
MP,MURX,10,10000,

MP,DENS,11,2329,	! kg m^-3
MP,ALPX,11,1.2e-05,	! C^-1
MP,C,11,434,	! J kg^-1 C^-1
MP,KXX,11,60.5,	! W m^-1 C^-1
MP,RSVX,11,1.7e-07,	! kg m^3 A^-2 s^-3
MP,EX,11,148000000000,	! Pa
MP,NUXY,11,0.3,
MP,MURX,11,10000,

MP,DENS,12,2329,	! kg m^-3
MP,ALPX,12,1.2e-05,	! C^-1
MP,C,12,434,	! J kg^-1 C^-1
MP,KXX,12,60.5,	! W m^-1 C^-1
MP,RSVX,12,1.7e-07,	! kg m^3 A^-2 s^-3
MP,EX,12,148000000000,	! Pa
MP,NUXY,12,0.3,
MP,MURX,12,10000,

MP,DENS,13,2329,	! kg m^-3
MP,ALPX,13,1.2e-05,	! C^-1
MP,C,13,434,	! J kg^-1 C^-1
MP,KXX,13,60.5,	! W m^-1 C^-1
MP,RSVX,13,1.7e-07,	! kg m^3 A^-2 s^-3
MP,EX,13,148000000000,	! Pa
MP,NUXY,13,0.3,
MP,MURX,13,10000,

MP,DENS,14,2329,	! kg m^-3
MP,ALPX,14,1.2e-05,	! C^-1
MP,C,14,434,	! J kg^-1 C^-1
MP,KXX,14,60.5,	! W m^-1 C^-1
MP,RSVX,14,1.7e-07,	! kg m^3 A^-2 s^-3
MP,EX,14,148000000000,	! Pa
MP,NUXY,14,0.3,
MP,MURX,14,10000,

MP,DENS,15,2329,	! kg m^-3
MP,ALPX,15,1.2e-05,	! C^-1
MP,C,15,434,	! J kg^-1 C^-1
MP,KXX,15,60.5,	! W m^-1 C^-1
MP,RSVX,15,1.7e-07,	! kg m^3 A^-2 s^-3
MP,EX,15,148000000000,	! Pa
MP,NUXY,15,0.3,
MP,MURX,15,10000,

MP,DENS,16,2329,	! kg m^-3
MP,ALPX,16,1.2e-05,	! C^-1
MP,C,16,434,	! J kg^-1 C^-1
MP,KXX,16,60.5,	! W m^-1 C^-1
MP,RSVX,16,1.7e-07,	! kg m^3 A^-2 s^-3
MP,EX,16,148000000000,	! Pa
MP,NUXY,16,0.3,
MP,MURX,16,10000,

MP,DENS,17,2329,	! kg m^-3
MP,ALPX,17,1.2e-05,	! C^-1
MP,C,17,434,	! J kg^-1 C^-1
MP,KXX,17,60.5,	! W m^-1 C^-1
MP,RSVX,17,1.7e-07,	! kg m^3 A^-2 s^-3
MP,EX,17,148000000000,	! Pa
MP,NUXY,17,0.3,
MP,MURX,17,10000,

MP,DENS,18,2329,	! kg m^-3
MP,ALPX,18,1.2e-05,	! C^-1
MP,C,18,434,	! J kg^-1 C^-1
MP,KXX,18,60.5,	! W m^-1 C^-1
MP,RSVX,18,1.7e-07,	! kg m^3 A^-2 s^-3
MP,EX,18,148000000000,	! Pa
MP,NUXY,18,0.3,
MP,MURX,18,10000,

MP,DENS,19,2329,	! kg m^-3
MP,ALPX,19,1.2e-05,	! C^-1
MP,C,19,434,	! J kg^-1 C^-1
MP,KXX,19,60.5,	! W m^-1 C^-1
MP,RSVX,19,1.7e-07,	! kg m^3 A^-2 s^-3
MP,EX,19,148000000000,	! Pa
MP,NUXY,19,0.3,
MP,MURX,19,10000,

MP,DENS,20,2329,	! kg m^-3
MP,ALPX,20,1.2e-05,	! C^-1
MP,C,20,434,	! J kg^-1 C^-1
MP,KXX,20,60.5,	! W m^-1 C^-1
MP,RSVX,20,1.7e-07,	! kg m^3 A^-2 s^-3
MP,EX,20,148000000000,	! Pa
MP,NUXY,20,0.3,
MP,MURX,20,10000,

MP,DENS,21,2329,	! kg m^-3
MP,ALPX,21,1.2e-05,	! C^-1
MP,C,21,434,	! J kg^-1 C^-1
MP,KXX,21,60.5,	! W m^-1 C^-1
MP,RSVX,21,1.7e-07,	! kg m^3 A^-2 s^-3
MP,EX,21,148000000000,	! Pa
MP,NUXY,21,0.3,
MP,MURX,21,10000,

MP,DENS,22,2329,	! kg m^-3
MP,ALPX,22,1.2e-05,	! C^-1
MP,C,22,434,	! J kg^-1 C^-1
MP,KXX,22,60.5,	! W m^-1 C^-1
MP,RSVX,22,1.7e-07,	! kg m^3 A^-2 s^-3
MP,EX,22,148000000000,	! Pa
MP,NUXY,22,0.3,
MP,MURX,22,10000,

/wb,mat,end                !  done sending materials
/com,*********** Send Sheet Properties ***********
r,1,1.e-005
r,2,1.e-005
r,3,1.e-005
r,4,1.e-005
r,5,1.e-005
r,6,1.e-005
r,7,1.e-005
r,8,1.e-005
r,9,1.e-005
r,10,1.e-005
r,11,1.e-005
r,12,1.e-005
r,13,1.e-005
r,14,1.e-005
r,15,1.e-005
r,16,1.e-005
r,17,1.e-005
r,18,1.e-005
r,19,1.e-005
r,20,1.e-005
r,21,1.e-005
r,22,1.e-005
!************************* Model Summary ********************
!Surface Body,	Structural Steel,	matid,	1
!Surface Body,	Structural Steel,	matid,	2
!Surface Body,	Structural Steel,	matid,	3
!Surface Body,	Structural Steel,	matid,	4
!Surface Body,	Structural Steel,	matid,	5
!Surface Body,	Structural Steel,	matid,	6
!Surface Body,	Structural Steel,	matid,	7
!Surface Body,	Structural Steel,	matid,	8
!Surface Body,	Structural Steel,	matid,	9
!Surface Body,	Structural Steel,	matid,	10
!UPP,	Structural Steel,	matid,	11
!Surface Body,	Structural Steel,	matid,	12
!Surface Body,	Structural Steel,	matid,	13
!Surface Body,	Structural Steel,	matid,	14
!Surface Body,	Structural Steel,	matid,	15
!Surface Body,	Structural Steel,	matid,	16
!Surface Body,	Structural Steel,	matid,	17
!Surface Body,	Structural Steel,	matid,	18
!Surface Body,	Structural Steel,	matid,	19
!Surface Body,	Structural Steel,	matid,	20
!Surface Body,	Structural Steel,	matid,	21
!Surface Body,	Structural Steel,	matid,	22
!************************* End Model Summary ********************
! get the diagonal of the bounding box. Needed later for other things
*get,_xmin,node,,mnloc,x
*get,_ymin,node,,mnloc,y
*get,_zmin,node,,mnloc,z
*get,_xmax,node,,mxloc,x
*get,_ymax,node,,mxloc,y
*get,_zmax,node,,mxloc,z
_ASMDIAG=(_xmax-_xmin)*(_xmax-_xmin)+(_ymax-_ymin)*(_ymax-_ymin)+(_zmax-_zmin)*(_zmax-_zmin)
_ASMDIAG=SQRT(_ASMDIAG)
/wb,contact,start          !  starting to send contact
/wb,contact,end            !  done creating contacts
/golist
/wb,load,start             !  starting to send loads
/com,*********** Fixed Supports ***********
CMBLOCK,_FIXEDSU,NODE,       20
(8i10)
         5         6       501       600       601      1318      1466      1467
      1471      1474      1681      1888      2954      2957      3943      3945
      5390      5391      5408      5822
cmsel,s,_FIXEDSU
d,all,all
nsel,all
nsel,all
/com,*********** Define Vertex Force Using Follower Elements ***********
et,23,201
keyo,23,1,1           ! Keep the direction constant
keyo,23,2,1           ! Apply Forces only, not moment
mat,23
real,23
type,23
en,1959,3
r,23
rmod,23,1,1.0,              ! FX
mat,24
real,24
type,23
en,1960,3
r,24
rmod,24,2,1.0,              ! FY

*DIM,_loadvari169x,TABLE,2,1,1,TIME,
! Time values
_loadvari169x(1,0,1) = 0.
_loadvari169x(2,0,1) = 1.
! Load values
_loadvari169x(1,1,1) = -0.
_loadvari169x(2,1,1) = 4.09435694373526e-019


*DIM,_loadvari169y,TABLE,2,1,1,TIME,
! Time values
_loadvari169y(1,0,1) = 0.
_loadvari169y(2,0,1) = 1.
! Load values
_loadvari169y(1,1,1) = 0.
_loadvari169y(2,1,1) = -3.e-005

/gst,on,on
fini
*get,_numnode,node,0,count
*get,_numelem,elem,0,count
*get, _MAXELEMNUM, elem, 0, NUM, MAX
*get, _MAXNODENUM, node, 0, NUM, MAX
*get, _MAXELEMTYPE, etyp, 0, NUM, MAX
*get, _MAXREALCONST, real, 0, NUM, MAX
/go
/wb,load,end               !  done creating loads
/com,--- Number of total nodes = %_numnode%
/com,--- Number of contact elements = 0
/com,--- Number of spring elements = 0
/com,--- Number of bearing elements = 0
/com,--- Number of solid elements = 1958
/com,--- Number of total elements = %_numelem%
*get,_wallbsol,active,,time,wall
/com,****************************************************************************
/com,*************************    SOLUTION       ********************************
/com,****************************************************************************
/solu
antype,0                   ! static analysis
nlgeom,on                  ! Turn on Large Deformation Effects
solc,on,on                 ! Turn on solution control with ability to use contact time prediction
eqsl,sparse,,,,,1
nropt,full                 ! Use full Newton-Raphson
cntr,print,1               ! print out contact info and also make no initial contact an error
dmpopt,emat,no             ! Don't combine emat file for DANSYS
dmpopt,esav,no             ! Don't combine esav file for DANSYS
nldiag,cont,iter           ! print out contact info each equilibrium iteration
resc,define,last,last,,dele	   ! Program Controlled
/com,****************************************************
/com,******************* SOLVE FOR LS 1 ****************
esel,s,real,,23
sfe,all,1,pres,1,%_loadvari169x%
esel,s,real,,24
sfe,all,1,pres,1,%_loadvari169y%
esel,all
/nopr
/gopr
autots,on                  ! Workbench Program Controlled automatic time stepping
nsub,1,10,1                ! due to presence of general nonlinear
time,1.
outres,erase
outres,all,none
outres,nsol,all
outres,rsol,all
outres,strs,all
outres,epel,all
outres,eppl,all
stabilize,off                   ! Stabilization turned OFF by user
! *********** WB SOLVE COMMAND ***********
! check interactive state
*get,ANSINTER_,active,,int
*if,ANSINTER_,ne,0,then
/eof
*endif
solve
/com *************** Write FE CONNECTORS ********* 
CEWRITE,file,ce,,INTE
/com,****************************************************
/com,*************** FINISHED SOLVE FOR LS 1 *************
*set,_DS_PROGRESS          ! turn off progress updates to avoid virus scanning bug
*get,_wallasol,active,,time,wall
/post1
xmlo,ENCODING,ISO-8859-1
xmlo,parm
/xml,parm,xml
fini
/gopr
*get,_walldone,active,,time,wall
_preptime=(_wallbsol-_wallstrt)*3600
_solvtime=(_wallasol-_wallbsol)*3600
_posttime=(_walldone-_wallasol)*3600
_totaltim=(_walldone-_wallstrt)*3600
/wb,file,end               ! done with WB generated input
