/batch
/config,noeldb,1     ! force off writing results to database
*get,_wallstrt,active,,time,wall
! ANSYS input file written by Workbench version 15.0.7  Release
! File used for geometry attach: C:\Users\mosta\OneDrive\Documents\ANSYS\QalandarGeom\QG_files\dp0\SYS\DM\SYS.agdb
/title,QG--Transient 4 (F5)
*DIM,_wb_ProjectScratch_dir,string,248
_wb_ProjectScratch_dir(1) = 'C:\Users\mosta\OneDrive\Documents\ANSYS\QalandarGeom\QG_files\dp0\SYS-6\MECH\'
*DIM,_wb_SolverFiles_dir,string,248
_wb_SolverFiles_dir(1) = 'C:\Users\mosta\OneDrive\Documents\ANSYS\QalandarGeom\QG_files\dp0\SYS-6\MECH\'
*DIM,_wb_userfiles_dir,string,248
_wb_userfiles_dir(1) = 'C:\Users\mosta\OneDrive\Documents\ANSYS\QalandarGeom\QG_files\user_files\'
/com,--- Data in consistent MKS units.
/units,MKS
/nopr
/wb,file,start              !  signify a WB generated input file
/prep7
! Turn off shape checking because checks already performed inside WB mesher.
! See help system for more information.
SHPP,OFF,,NOWARN
/nolist
etcon,set             ! allow ANSYS to choose best KEYOP's for 180x elements
/com,*********** Nodes for the whole assembly ***********
nblock,3
(1i9,3e20.9e3)
        1    4.615000000E-005   -1.030000000E-005    0.000000000E+000
        2    4.615000000E-005   -3.865200000E-004    0.000000000E+000
        3    4.615000000E-005   -1.214421569E-005    0.000000000E+000
        4    4.615000000E-005   -1.398843137E-005    0.000000000E+000
        5    4.615000000E-005   -1.583264706E-005    0.000000000E+000
        6    4.615000000E-005   -1.767686275E-005    0.000000000E+000
        7    4.615000000E-005   -1.952107843E-005    0.000000000E+000
        8    4.615000000E-005   -2.136529412E-005    0.000000000E+000
        9    4.615000000E-005   -2.320950980E-005    0.000000000E+000
       10    4.615000000E-005   -2.505372549E-005    0.000000000E+000
       11    4.615000000E-005   -2.689794118E-005    0.000000000E+000
       12    4.615000000E-005   -2.874215686E-005    0.000000000E+000
       13    4.615000000E-005   -3.058637255E-005    0.000000000E+000
       14    4.615000000E-005   -3.243058824E-005    0.000000000E+000
       15    4.615000000E-005   -3.427480392E-005    0.000000000E+000
       16    4.615000000E-005   -3.611901961E-005    0.000000000E+000
       17    4.615000000E-005   -3.796323529E-005    0.000000000E+000
       18    4.615000000E-005   -3.980745098E-005    0.000000000E+000
       19    4.615000000E-005   -4.165166667E-005    0.000000000E+000
       20    4.615000000E-005   -4.349588235E-005    0.000000000E+000
! ... 3164 like lines cut
/wb,elem,start            !  set before creation of elements
/com,*********** Elements for Body 1 "Surface Body" ***********
et,1,183
keyo,1,3,3
eblock,19,solid,,636
(19i9)
        1        1        1        1        0        0        0        0        8        0        1      622      704      703      623     2355     2477     2357     2354
        1        1        1        1        0        0        0        0        8        0        2      703      702      624      623     2476     2359     2356     2357
        1        1        1        1        0        0        0        0        8        0        3      621      705      704      622     2353     2478     2355     2352
        1        1        1        1        0        0        0        0        8        0        4      624      702      701      625     2359     2475     2361     2358
        1        1        1        1        0        0        0        0        8        0        5      620      706      705      621     2351     2479     2353     2350
        1        1        1        1        0        0        0        0        8        0        6      625      701      700      626     2361     2474     2363     2360
        1        1        1        1        0        0        0        0        8        0        7      619      707      706      620     2349     2480     2351     2348
        1        1        1        1        0        0        0        0        8        0        8      626      700      699      627     2363     2473     2365     2362
        1        1        1        1        0        0        0        0        8        0        9      618      708      707      619     2347     2481     2349     2346
        1        1        1        1        0        0        0        0        8        0       10      627      699      698      628     2365     2472     2367     2364
        1        1        1        1        0        0        0        0        8        0       11      617      709      708      618     2345     2482     2347     2344
        1        1        1        1        0        0        0        0        8        0       12      628      698      697      629     2367     2471     2369     2366
        1        1        1        1        0        0        0        0        8        0       13      616      710      709      617     2343     2483     2345     2342
        1        1        1        1        0        0        0        0        8        0       14      629      697      696      630     2369     2470     2371     2368
        1        1        1        1        0        0        0        0        8        0       15      615      711      710      616     2341     2484     2343     2340
        1        1        1        1        0        0        0        0        8        0       16      630      696      695      631     2371     2469     2373     2370
        1        1        1        1        0        0        0        0        8        0       17      614      712      711      615     2339     2485     2341     2338
        1        1        1        1        0        0        0        0        8        0       18      631      695      694      632     2373     2468     2375     2372
        1        1        1        1        0        0        0        0        8        0       19      613      713      712      614     2337     2486     2339     2336
        1        1        1        1        0        0        0        0        8        0       20      632      694      693      633     2375     2467     2377     2374
! ... 617 like lines cut
!Material Id = {8ADE73AD-D581-40AD-BE4F-BF1855B548E0}
/wb,elem,end               !  done creating elements
/com,*********** Send User Defined Coordinate System(s) ***********
csys,0
toffst,273.15,  ! Temperature offset from absolute zero
/com,*********** Set Reference Temperature ***********
tref,22.
/wb,mat,start              !  starting to send materials
/com,*********** Send Materials ***********
MP,DENS,1,2329,	! kg m^-3
MP,ALPX,1,1.2e-05,	! C^-1
MP,C,1,434,	! J kg^-1 C^-1
MP,KXX,1,60.5,	! W m^-1 C^-1
MP,RSVX,1,1.7e-07,	! kg m^3 A^-2 s^-3
MP,EX,1,170000000000,	! Pa
MP,NUXY,1,0.33,
MP,MURX,1,10000,

/wb,mat,end                !  done sending materials
/com,*********** Send Sheet Properties ***********
r,1,1.e-005
!************************* Model Summary ********************
!Surface Body,	Structural Steel,	matid,	1
!************************* End Model Summary ********************
! get the diagonal of the bounding box. Needed later for other things
*get,_xmin,node,,mnloc,x
*get,_ymin,node,,mnloc,y
*get,_zmin,node,,mnloc,z
*get,_xmax,node,,mxloc,x
*get,_ymax,node,,mxloc,y
*get,_zmax,node,,mxloc,z
_ASMDIAG=(_xmax-_xmin)*(_xmax-_xmin)+(_ymax-_ymin)*(_ymax-_ymin)+(_zmax-_zmin)*(_zmax-_zmin)
_ASMDIAG=SQRT(_ASMDIAG)
/wb,contact,start          !  starting to send contact
/wb,contact,end            !  done creating contacts
CMBLOCK,SELECTION,NODE,       22
(8i10)
      2508      2547      2549      2551      2553      2555      2557      2559
      2561      2563      2564      2565      2567      2569      2571      2573
      2575      2577      2579      2581      2582      2594
CMBLOCK,C_0TH   ,NODE,        1
(8i10)
      2564
CMBLOCK,C_2TH   ,NODE,        1
(8i10)
      2754
CMBLOCK,C_3RD   ,NODE,        1
(8i10)
      2144
CMBLOCK,C_4TH   ,NODE,        1
(8i10)
      1483
CMBLOCK,C_1ST   ,NODE,        1
(8i10)
      2371
/golist
/wb,load,start             !  starting to send loads
/com,*********** Fixed Supports ***********
CMBLOCK,_FIXEDSU,NODE,       18
(8i10)
         2       206       226       267       410       593       663       753
       772       832       931      1072      1279      1686      1787      2297
      2547      2645
cmsel,s,_FIXEDSU
d,all,all
nsel,all
nsel,all
/com,*********** Create Direct FE , Forces ****
CMBLOCK,_CM478F ,NODE,        1
(8i10)
      2564
!
! ANSYS Function Representation
!
*DIM,_loadvari478x,TABLE,6,8,2,,,,0
!
! Begin of equation: time (N)
_loadvari478x(0,0,1)= 0, -999
_loadvari478x(2,0,1)= 0.0
_loadvari478x(3,0,1)= 0.0
_loadvari478x(4,0,1)= 0.0
_loadvari478x(5,0,1)= 0.0
_loadvari478x(6,0,1)= 0.0
_loadvari478x(0,1,1)= 1.0, -1, 0, 0.000001, 0, 0, 1
_loadvari478x(0,2,1)= 0.0, -2, 0, 1, 1, 3, -1
_loadvari478x(0,3,1)=   0, 99, 0, 1, -2, 0, 0
_loadvari478x(0,4,1)= 0.0, 
_loadvari478x(0,5,1)= 0.0, 
_loadvari478x(0,6,1)= 0.0, 
_loadvari478x(0,7,1)= 0.0, 
_loadvari478x(0,8,1)= 0.0, 
! End of equation: time (N)
!
! Begin of equation: 500*sin(5529203.07*time) (N)
_loadvari478x(0,0,2)= -999, -999
_loadvari478x(2,0,2)= 0.0
_loadvari478x(3,0,2)= 0.0
_loadvari478x(4,0,2)= 0.0
_loadvari478x(5,0,2)= 0.0
_loadvari478x(6,0,2)= 0.0
_loadvari478x(0,1,2)= 1.0, -1, 0, 5529203.07, 0, 0, 1
_loadvari478x(0,2,2)= 0.0, -2, 0, 1, -1, 3, 1
_loadvari478x(0,3,2)=   0, -1, 9, 1, -2, 0, 0
_loadvari478x(0,4,2)= 0.0, -2, 0, 500, 0, 0, -1
_loadvari478x(0,5,2)= 0.0, -3, 0, 1, -2, 3, -1
_loadvari478x(0,6,2)= 0.0, -1, 0, 0.000001, 0, 0, -3
_loadvari478x(0,7,2)= 0.0, -2, 0, 1, -3, 3, -1
_loadvari478x(0,8,2)= 0.0, 99, 0, 1, -2, 0, 0
! End of equation: 500*sin(5529203.07*time) (N)


*DIM,_loadvari478y,TABLE,1,1,1,TIME,
! Time values
_loadvari478y(1,0,1) = 2.e-003
! Load values
_loadvari478y(1,1,1) = 0.


*DIM,_loadvari478z,TABLE,1,1,1,TIME,
! Time values
_loadvari478z(1,0,1) = 2.e-003
! Load values
_loadvari478z(1,1,1) = 0.

/gst,on,on
fini
*get,_numnode,node,0,count
*get,_numelem,elem,0,count
*get, _MAXELEMNUM, elem, 0, NUM, MAX
*get, _MAXNODENUM, node, 0, NUM, MAX
*get, _MAXELEMTYPE, etyp, 0, NUM, MAX
*get, _MAXREALCONST, real, 0, NUM, MAX
/go
/wb,load,end               !  done creating loads
/com,--- Number of total nodes = %_numnode%
/com,--- Number of contact elements = 0
/com,--- Number of spring elements = 0
/com,--- Number of bearing elements = 0
/com,--- Number of solid elements = 636
/com,--- Number of total elements = %_numelem%
*get,_wallbsol,active,,time,wall
/com,****************************************************************************
/com,*************************    SOLUTION       ********************************
/com,****************************************************************************
/solu
antype,4                   ! transient analysis
nlgeom,on                  ! Turn on Large Deformation Effects
solc,on,on                 ! Turn on solution control with ability to use contact time prediction
kbc,1                      ! stepped BC's
eqsl,sparse,,,,,1
nropt,full                 ! Use full Newton-Raphson
cntr,print,1               ! print out contact info and also make no initial contact an error
dmpopt,emat,no             ! Don't combine emat file for DANSYS
dmpopt,esav,no             ! Don't combine esav file for DANSYS
trnopt,full,,,,,hht        ! HHT time integration method
alphad,761.	! Alpha damping
betad,1.96e-010	! Beta damping, frequency dependent
tintp,0.1	! Numerical Damping
nldiag,cont,iter           ! print out contact info each equilibrium iteration
resc,,none                 ! Do not keep any restart files
/com,****************************************************
/com,******************* SOLVE FOR LS 1 ****************
/com,**** Set Direct FE , Forces ****
f,_CM478F,fx,%_loadvari478x%
f,_CM478F,fy,%_loadvari478y%
f,_CM478F,fz,%_loadvari478z%
/nopr
/gopr
autots,off                 ! User turned off automatic time stepping
deltim,2.27273e-008,2.27273e-008,2.27273e-008
time,4.e-003
timint,on                  ! Turn on time integration effects
outres,erase
outres,all,none
outres,nsol,all
outres,rsol,all
outres,v,all
outres,a,all
stabilize,off                   ! Stabilization turned OFF by user
! *********** WB SOLVE COMMAND ***********
! check interactive state
*get,ANSINTER_,active,,int
*if,ANSINTER_,ne,0,then
/eof
*endif
solve
/com *************** Write FE CONNECTORS ********* 
CEWRITE,file,ce,,INTE
/com,****************************************************
/com,*************** FINISHED SOLVE FOR LS 1 *************
*set,_DS_PROGRESS          ! turn off progress updates to avoid virus scanning bug
*get,_wallasol,active,,time,wall
/post1
xmlo,ENCODING,ISO-8859-1
xmlo,parm
/xml,parm,xml
fini
/gopr
*get,_walldone,active,,time,wall
_preptime=(_wallbsol-_wallstrt)*3600
_solvtime=(_wallasol-_wallbsol)*3600
_posttime=(_walldone-_wallasol)*3600
_totaltim=(_walldone-_wallstrt)*3600
/wb,file,end               ! done with WB generated input
