*Heading
** Job name: naca0012TRI Model name: Model-1
** Generated by: Abaqus/CAE 2021
*Preprint, echo=NO, model=NO, history=NO, contact=NO
**
** PARTS
**
*Part, name=naca0012
*End Part
**  
**
** ASSEMBLY
**
*Assembly, name=Assembly
**  
*Instance, name=naca0012-2, part=naca0012
*Node
      1,  0.146580994, 0.000566167873
      2,  0.142616495, 0.00111405156
      3,  0.130709425, 0.00265585491
      4,  0.110826902, 0.00491651986
      5, 0.0749401078, 0.0079789469
      6, 0.0549515113, 0.00889940746
      7, 0.0349437818, 0.00886153337
      8, 0.0150293494, 0.00704534259
      9, 0.00723244622, 0.00526078278
     10, 0.00350658549, 0.00381091866
     11, 0.000738200149, 0.00182136334
     12,  0.150542721,           0.
     13,           0.,           0.
     14, 0.000738200149, -0.00182136334
     15, 0.00350658549, -0.00381091889
     16, 0.00723244622, -0.00526078278
     17, 0.0150293494, -0.00704534259
     18, 0.0349437818, -0.00886153337
     19, 0.0549515113, -0.00889940746
     20, 0.0749401078, -0.0079789469
** ... 154 like lines cut
*Element, type=CPS3
  1,  23,   1,   2
  2,  26,  77,  25
  3, 137,  80,  75
  4, 135, 134,  81
  5, 127, 126,  63
  6, 123, 122,  59
  7, 119, 118,  55
  8,  85,  16,  52
  9,  86,  10,  79
 10,  79,  11,  13
 11,  79,  13,  14
 12,  79,  14,  15
 13, 138,  85, 115
 14, 115,  51,   9
 15,  88,  47,  84
 16,  89,  43,  83
 17,  90,  39,  82
 18, 136,  91, 135
 19,  92,  76,  22
 20,  25,  23,   2
** ... 248 like lines cut
*Nset, nset=Set-1, generate
   1,  174,    1
*Elset, elset=Set-1, generate
   1,  268,    1
** Section: Section-1
*Solid Section, elset=Set-1, material=Material-1
,
*End Instance
**  
*End Assembly
** 
** MATERIALS
** 
*Material, name=Material-1
*Elastic
200000., 0.45
** ----------------------------------------------------------------
** 
** STEP: Step-1
** 
*Step, name=Step-1, nlgeom=NO
*Static
1., 1., 1e-05, 1.
** 
** OUTPUT REQUESTS
** 
*Restart, write, frequency=0
** 
** FIELD OUTPUT: F-Output-1
** 
*Output, field, variable=PRESELECT
** 
** HISTORY OUTPUT: H-Output-1
** 
*Output, history, variable=PRESELECT
*End Step
